data_mo_wl03_040e_4_298k_0m
_audit_creation_date               2025-05-09
_audit_creation_method
;
Olex2 1.5
(compiled 2025.04.05 svn.rf049d14d for OlexSys, GUI svn.r7205)
;
_shelx_SHELXL_version_number       '2018/3'
_audit_contact_author_address      ?
_audit_contact_author_email        ?
_audit_contact_author_name         ''
_audit_contact_author_phone        ?
_publ_contact_author_id_orcid      ?
_publ_section_references
;
Dolomanov, O.V., Bourhis, L.J., Gildea, R.J, Howard, J.A.K. & Puschmann, H.
 (2009), J. Appl. Cryst. 42, 339-341.

Sheldrick, G.M. (2015). Acta Cryst. A71, 3-8.

Sheldrick, G.M. (2015). Acta Cryst. C71, 3-8.
;
# start Validation Reply Form
_vrf_PLAT420_mo_wl03_040e_4_298k_0m
;
PROBLEM: D-H Bond Without Acceptor  O3       --H3       .     Please Check 
RESPONSE: The hydrogen points into the voids in the structure, a solvent mask
has been used to account for the electron density in the voids and so there
is no available donor atom.
;
# end Validation Reply Form
_chemical_name_common              ?
_chemical_name_systematic          ?
_chemical_formula_moiety           'C4 H3 In O5'
_chemical_formula_sum              'C4 H3 In O5'
_chemical_formula_weight           245.88
_chemical_melting_point            ?
loop_
  _atom_type_symbol
  _atom_type_description
  _atom_type_scat_dispersion_real
  _atom_type_scat_dispersion_imag
  _atom_type_scat_source
 'C' 'C' 0.0033 0.0016 'International Tables Vol C Tables 4.2.6.8 and 6.1.1.4'
 'H' 'H' 0.0000 0.0000 'International Tables Vol C Tables 4.2.6.8 and 6.1.1.4'
 'In' 'In' -0.7276 1.3100
 'International Tables Vol C Tables 4.2.6.8 and 6.1.1.4'
 'O' 'O' 0.0106 0.0060 'International Tables Vol C Tables 4.2.6.8 and 6.1.1.4'

_shelx_space_group_comment
;
The symmetry employed for this shelxl refinement is uniquely defined
by the following loop, which should always be used as a source of
symmetry information in preference to the above space-group names.
They are only intended as comments.
;
_space_group_crystal_system        'orthorhombic'
_space_group_IT_number             62
_space_group_name_H-M_alt          Pnma
_space_group_name_Hall             '-P 2ac 2n'
loop_
  _space_group_symop_operation_xyz
 'x, y, z'
 '-x+1/2, -y, z+1/2'
 '-x, y+1/2, -z'
 'x+1/2, -y+1/2, -z+1/2'
 '-x, -y, -z'
 'x-1/2, y, -z-1/2'
 'x, -y-1/2, z'
 '-x-1/2, y-1/2, z-1/2'

_cell_length_a                     7.307(2)
_cell_length_b                     10.626(3)
_cell_length_c                     13.915(5)
_cell_angle_alpha                  90
_cell_angle_beta                   90
_cell_angle_gamma                  90
_cell_volume                       1080.4(6)
_cell_formula_units_Z              4
_cell_measurement_reflns_used      4993
_cell_measurement_temperature      298
_cell_measurement_theta_max        26.44
_cell_measurement_theta_min        2.41
_shelx_estimated_absorpt_T_max     0.942
_shelx_estimated_absorpt_T_min     0.672
_exptl_absorpt_coefficient_mu      2.162
_exptl_absorpt_correction_T_max    0.7454
_exptl_absorpt_correction_T_min    0.6051
_exptl_absorpt_correction_type     none
_exptl_absorpt_process_details
;
SADABS-2016/2 (Bruker,2016/2) was used for absorption correction.
wR2(int) was 0.1072 before and 0.0760 after correction.
The Ratio of minimum to maximum transmission is 0.8118.
The \l/2 correction factor is Not present.
;
_exptl_absorpt_special_details     ?
_exptl_crystal_colour              colourless
_exptl_crystal_colour_primary      colourless
_exptl_crystal_density_diffrn      1.512
_exptl_crystal_density_meas        ?
_exptl_crystal_density_method      ?
_exptl_crystal_description         needle
_exptl_crystal_F_000               464
_exptl_crystal_size_max            0.2
_exptl_crystal_size_mid            0.028
_exptl_crystal_size_min            0.028
_exptl_transmission_factor_max     ?
_exptl_transmission_factor_min     ?
_diffrn_reflns_av_R_equivalents    0.0511
_diffrn_reflns_av_unetI/netI       0.0420
_diffrn_reflns_Laue_measured_fraction_full  0.996
_diffrn_reflns_Laue_measured_fraction_max  0.992
_diffrn_reflns_limit_h_max         9
_diffrn_reflns_limit_h_min         -8
_diffrn_reflns_limit_k_max         13
_diffrn_reflns_limit_k_min         -12
_diffrn_reflns_limit_l_max         17
_diffrn_reflns_limit_l_min         -13
_diffrn_reflns_number              5946
_diffrn_reflns_point_group_measured_fraction_full  0.996
_diffrn_reflns_point_group_measured_fraction_max  0.992
_diffrn_reflns_theta_full          25.242
_diffrn_reflns_theta_max           26.445
_diffrn_reflns_theta_min           2.412
_diffrn_ambient_temperature        298
_diffrn_detector                   'charge integrating pixel array detector'
_diffrn_detector_area_resol_mean   7.4074
_diffrn_detector_type              'Bruker PHOTON II'
_diffrn_measured_fraction_theta_full  0.996
_diffrn_measured_fraction_theta_max  0.992
_diffrn_measurement_device         'four-circle diffractometer'
_diffrn_measurement_device_type    Photon
_diffrn_measurement_method         '\f and \w scans'
_diffrn_radiation_collimation      'focusing mirrors'
_diffrn_radiation_monochromator    'multilayer mirror optics'
_diffrn_radiation_type             MoK\a
_diffrn_radiation_wavelength       0.71073
_diffrn_source                     'microfocus sealed tube'
_diffrn_source_current             1.4
_diffrn_source_power               0.07
_diffrn_source_type                'INCOATEC I\ms 3.0'
_diffrn_source_voltage             50.0
_diffrn_standards_number           0
_reflns_Friedel_coverage           0.000
_reflns_Friedel_fraction_full      .
_reflns_Friedel_fraction_max       .
_reflns_number_gt                  1103
_reflns_number_total               1165
_reflns_special_details
;
 Reflections were merged by SHELXL according to the crystal
 class for the calculation of statistics and refinement.
 
 Structure factors included contributions from the .fab file.
 
 _reflns_Friedel_fraction is defined as the number of unique
 Friedel pairs measured divided by the number that would be
 possible theoretically, ignoring centric projections and
 systematic absences.
;
_reflns_threshold_expression       'I > 2\s(I)'
_computing_cell_refinement         'SAINT V8.37A (Bruker-AXS, 2016)'
_computing_data_collection         'APEX3 Ver. 2016.9-0 (Bruker-AXS, 2016)'
_computing_data_reduction          'APEX3 Ver. 2016.9-0 (Bruker-AXS, 2016)'
_computing_molecular_graphics      'Olex2 1.5 (Dolomanov et al., 2009)'
_computing_publication_material    'Olex2 1.5 (Dolomanov et al., 2009)'
_computing_structure_refinement    'SHELXL 2018/3 (Sheldrick, 2015)'
_computing_structure_solution      'SHELXT 2018/2 (Sheldrick, 2018)'
_refine_diff_density_max           1.027
_refine_diff_density_min           -0.784
_refine_diff_density_rms           0.129
_refine_ls_extinction_coef         .
_refine_ls_extinction_method       none
_refine_ls_goodness_of_fit_ref     1.098
_refine_ls_hydrogen_treatment      mixed
_refine_ls_matrix_type             full
_refine_ls_number_parameters       52
_refine_ls_number_reflns           1165
_refine_ls_number_restraints       2
_refine_ls_R_factor_all            0.0356
_refine_ls_R_factor_gt             0.0344
_refine_ls_restrained_S_all        1.097
_refine_ls_shift/su_max            0.000
_refine_ls_shift/su_mean           0.000
_refine_ls_structure_factor_coef   Fsqd
_refine_ls_weighting_details      
 'w=1/[\s^2^(Fo^2^)+(0.0183P)^2^+4.3398P] where P=(Fo^2^+2Fc^2^)/3'
_refine_ls_weighting_scheme        calc
_refine_ls_wR_factor_gt            0.0849
_refine_ls_wR_factor_ref           0.0859
_refine_special_details            ?
_olex2_refinement_description
;
1. Fixed Uiso
 At 1.2 times of:
  All C(H) groups
2. Restrained distances
 O3-H3
 0.84 with sigma of 0.02
 In1_$1-H3 \\sim H3-In1
 with sigma of 0.02
3.a Aromatic/amide H refined with riding coordinates:
 C2(H2)
;
_atom_sites_solution_hydrogens     mixed
_atom_sites_solution_primary       dual
_atom_sites_solution_secondary     ?
loop_
  _atom_site_label
  _atom_site_type_symbol
  _atom_site_fract_x
  _atom_site_fract_y
  _atom_site_fract_z
  _atom_site_U_iso_or_equiv
  _atom_site_adp_type
  _atom_site_occupancy
  _atom_site_site_symmetry_order
  _atom_site_calc_flag
  _atom_site_refinement_flags_posn
  _atom_site_refinement_flags_adp
  _atom_site_refinement_flags_occupancy
  _atom_site_disorder_assembly
  _atom_site_disorder_group
 C1 C 0.5855(6) 0.5799(5) 0.1160(3) 0.0369(10) Uani 1 1 d . . . . .
 In1 In 0.33871(5) 0.750000 0.25441(2) 0.02234(16) Uani 1 2 d DS T P . .
 O1 O 0.4374(4) 0.6097(4) 0.1541(3) 0.0488(10) Uani 1 1 d . . . . .
 C2 C 0.5756(6) 0.5024(5) 0.0275(4) 0.0458(12) Uani 1 1 d . . . . .
 H2 H 0.677352 0.455423 0.009511 0.055 Uiso 1 1 calc R U . . .
 O2 O 0.7406(4) 0.6079(3) 0.1455(2) 0.0445(9) Uani 1 1 d . . . . .
 O3 O 0.5923(5) 0.750000 0.3202(3) 0.0308(10) Uani 1 2 d DS T P . .
 H3 H 0.5974(19) 0.750000 0.3805(15) 0.04(2) Uiso 1 2 d DS . P . .

loop_
  _atom_site_aniso_label
  _atom_site_aniso_U_11
  _atom_site_aniso_U_22
  _atom_site_aniso_U_33
  _atom_site_aniso_U_23
  _atom_site_aniso_U_13
  _atom_site_aniso_U_12
 C1 0.030(2) 0.043(3) 0.038(2) -0.014(2) -0.0047(17) 0.0034(19)
 In1 0.0116(2) 0.0369(3) 0.0186(2) 0.000 0.00153(12) 0.000
 O1 0.0249(15) 0.073(2) 0.0489(19) -0.0366(19) -0.0025(14) 0.0019(17)
 C2 0.033(2) 0.056(3) 0.048(3) -0.023(2) -0.002(2) 0.005(2)
 O2 0.0200(14) 0.065(2) 0.0480(18) -0.0301(17) -0.0034(13) -0.0028(16)
 O3 0.0097(17) 0.062(3) 0.0204(19) 0.000 -0.0001(13) 0.000

_geom_special_details
;
 All esds (except the esd in the dihedral angle between two l.s. planes)
 are estimated using the full covariance matrix.  The cell esds are taken
 into account individually in the estimation of esds in distances, angles
 and torsion angles; correlations between esds in cell parameters are only
 used when they are defined by crystal symmetry.  An approximate (isotropic)
 treatment of cell esds is used for estimating esds involving l.s. planes.
;
loop_
  _geom_bond_atom_site_label_1
  _geom_bond_atom_site_label_2
  _geom_bond_distance
  _geom_bond_site_symmetry_2
  _geom_bond_publ_flag
 C1 O1 1.247(5) . ?
 C1 C2 1.482(6) . ?
 C1 O2 1.242(5) . ?
 In1 O1 2.166(3) 7_575 ?
 In1 O1 2.166(3) . ?
 In1 O2 2.175(3) 4_465 ?
 In1 O2 2.175(3) 6_556 ?
 In1 O3 2.067(4) . ?
 In1 O3 2.078(4) 6_556 ?
 C2 C2 1.345(9) 5_665 ?
 C2 H2 0.9300 . ?
 O3 H3 0.84(2) . ?
 O3 H3 0.84(2) . ?

loop_
  _geom_angle_atom_site_label_1
  _geom_angle_atom_site_label_2
  _geom_angle_atom_site_label_3
  _geom_angle
  _geom_angle_site_symmetry_1
  _geom_angle_site_symmetry_3
  _geom_angle_publ_flag
 O1 C1 C2 116.9(4) . . ?
 O2 C1 O1 126.2(4) . . ?
 O2 C1 C2 116.9(4) . . ?
 O1 In1 O1 87.0(2) . 7_575 ?
 O1 In1 O2 179.55(15) . 4_465 ?
 O1 In1 O2 179.55(15) 7_575 6_556 ?
 O1 In1 O2 92.54(16) . 6_556 ?
 O1 In1 O2 92.54(16) 7_575 4_465 ?
 O2 In1 O2 87.9(2) 4_465 6_556 ?
 O3 In1 O1 88.08(11) 6_556 7_575 ?
 O3 In1 O1 89.25(11) . 7_575 ?
 O3 In1 O1 89.25(11) . . ?
 O3 In1 O1 88.08(11) 6_556 . ?
 O3 In1 O2 90.70(11) . 4_465 ?
 O3 In1 O2 91.96(11) 6_556 6_556 ?
 O3 In1 O2 91.96(11) 6_556 4_465 ?
 O3 In1 O2 90.70(11) . 6_556 ?
 O3 In1 O3 176.31(9) . 6_556 ?
 C1 O1 In1 137.6(3) . . ?
 C1 C2 H2 118.9 . . ?
 C2 C2 C1 122.3(6) 5_665 . ?
 C2 C2 H2 118.9 5_665 . ?
 C1 O2 In1 132.8(3) . 4_565 ?
 In1 O3 In1 123.75(19) . 4_565 ?
 In1 O3 H3 117.4(10) 4_565 . ?
 In1 O3 H3 118.8(10) . . ?
 H3 O3 In1 117.4(10) . 4_565 ?
 H3 O3 In1 118.8(10) . . ?
 H3 O3 H3 0.0(19) . . ?

loop_
  _geom_torsion_atom_site_label_1
  _geom_torsion_atom_site_label_2
  _geom_torsion_atom_site_label_3
  _geom_torsion_atom_site_label_4
  _geom_torsion
  _geom_torsion_site_symmetry_1
  _geom_torsion_site_symmetry_2
  _geom_torsion_site_symmetry_3
  _geom_torsion_site_symmetry_4
  _geom_torsion_publ_flag
 O1 C1 C2 C2 21.4(10) . . . 5_665 ?
 O1 C1 O2 In1 -17.9(9) . . . 4_565 ?
 C2 C1 O1 In1 -160.6(4) . . . . ?
 C2 C1 O2 In1 162.9(4) . . . 4_565 ?
 O2 C1 O1 In1 20.2(9) . . . . ?
 O2 C1 C2 C2 -159.3(7) . . . 5_665 ?

_smtbx_masks_special_details       ?
loop_
  _smtbx_masks_void_nr
  _smtbx_masks_void_average_x
  _smtbx_masks_void_average_y
  _smtbx_masks_void_average_z
  _smtbx_masks_void_volume
  _smtbx_masks_void_count_electrons
  _smtbx_masks_void_content
 1 -0.998 -0.721 -0.515 556.1 155.6 ?

_smtbx_masks_void_probe_radius     1.2
_smtbx_masks_void_truncation_radius  1.2
_shelx_res_file
;
TITL mo_wl03_040e_4_298k_0m_a.res in Pnma
    mo_wl03_040e_4_298k_0m.res
    created by SHELXL-2018/3 at 14:54:45 on 09-May-2025
REM Old TITL mo_WL03_040E_4_298K_0m in Pnma
REM SHELXT solution in Pnma: R1 0.126, Rweak 0.002, Alpha 0.028
REM <I/s> 1.573 for 150 systematic absences, Orientation as input
REM Formula found by SHELXT: C6 O5 In
CELL 0.71073 7.3073 10.6257 13.9147 90 90 90
ZERR 4 0.0021 0.0032 0.0045 0 0 0
LATT 1
SYMM 0.5-X,-Y,0.5+Z
SYMM -X,0.5+Y,-Z
SYMM 0.5+X,0.5-Y,0.5-Z
SFAC C H In O
UNIT 16 12 4 20
EQIV $1 0.5+X,1.5-Y,0.5-Z
DFIX 0.84 O3 H3
SADI In1_$1 H3 H3 In1

L.S. 40
PLAN  40
SIZE 0.028 0.028 0.2
TEMP 24.85
CONF
BIND H3 O3
BOND
list 4
MORE -1
BOND $H
ABIN
fmap 2
acta
OMIT 1 0 1
OMIT 1 0 4
REM <olex2.extras>
REM <HklSrc "%.\\mo_WL03_040E_4_298K_0m.hkl">
REM </olex2.extras>

WGHT    0.018300    4.339800
FVAR       0.42616
C1    1    0.585512    0.579900    0.115954    11.00000    0.02992    0.04277 =
         0.03803   -0.01428   -0.00470    0.00335
IN1   3    0.338710    0.750000    0.254415    10.50000    0.01156    0.03687 =
         0.01859    0.00000    0.00153    0.00000
O1    4    0.437361    0.609690    0.154109    11.00000    0.02492    0.07264 =
         0.04893   -0.03664   -0.00248    0.00189
C2    1    0.575581    0.502381    0.027534    11.00000    0.03337    0.05577 =
         0.04827   -0.02317   -0.00205    0.00513
AFIX  43
H2    2    0.677352    0.455423    0.009511    11.00000   -1.20000
AFIX   0
O2    4    0.740576    0.607913    0.145533    11.00000    0.01997    0.06549 =
         0.04804   -0.03009   -0.00336   -0.00279
O3    4    0.592331    0.750000    0.320192    10.50000    0.00968    0.06238 =
         0.02036    0.00000   -0.00012    0.00000
H3    2    0.597445    0.750000    0.380493    10.50000    0.04160
HKLF 4




REM  mo_wl03_040e_4_298k_0m_a.res in Pnma
REM wR2 = 0.0859, GooF = S = 1.098, Restrained GooF = 1.097 for all data
REM R1 = 0.0344 for 1103 Fo > 4sig(Fo) and 0.0356 for all 1165 data
REM 52 parameters refined using 2 restraints

END

WGHT      0.0183      4.3408

REM Highest difference peak  1.027,  deepest hole -0.784,  1-sigma level  0.129
Q1    1   0.3513  0.6887  0.2236  11.00000  0.05    1.03
Q2    1   0.5148  0.7500  0.2598  10.50000  0.05    0.69
Q3    1   0.2807  0.7006  0.3159  11.00000  0.05    0.54
Q4    1   0.3420  0.7500  0.3061  10.50000  0.05    0.48
Q5    1   0.3692  0.6365  0.2712  11.00000  0.05    0.48
Q6    1   0.2254  0.7500  0.2594  10.50000  0.05    0.42
Q7    1   0.6216  0.7500  0.4409  10.50000  0.05    0.41
Q8    1   0.5871  0.6146  0.2592  11.00000  0.05    0.34
Q9    1   0.3778  0.5769  0.2397  11.00000  0.05    0.32
Q10   1   0.4862  0.6730  0.1245  11.00000  0.05    0.31
Q11   1   0.5996  0.5001  0.0916  11.00000  0.05    0.29
Q12   1   0.4485  0.7500  0.0795  10.50000  0.05    0.29
Q13   1   0.7224  0.7500  0.3096  10.50000  0.05    0.27
Q14   1   0.4131  0.5648  0.1390  11.00000  0.05    0.25
Q15   1   0.5694  0.4363  0.0816  11.00000  0.05    0.25
Q16   1   0.4099  0.7500  0.6403  10.50000  0.05    0.24
Q17   1   0.7105  0.5411  0.2399  11.00000  0.05    0.23
Q18   1   0.7394  0.5675  0.1185  11.00000  0.05    0.22
Q19   1   0.6167  0.6585  0.2981  11.00000  0.05    0.21
Q20   1   0.5976  0.2500  0.0560  10.50000  0.05    0.20
Q21   1   0.5817  0.7500 -0.0232  10.50000  0.05    0.20
Q22   1   0.4988  0.5713  0.1780  11.00000  0.05    0.20
Q23   1   0.5360  0.2500  0.0608  10.50000  0.05    0.20
Q24   1   0.6435  0.2500  0.0075  10.50000  0.05    0.19
Q25   1   0.2808  0.6524  0.1374  11.00000  0.05    0.19
Q26   1   0.5609  0.6936  0.3539  11.00000  0.05    0.19
Q27   1   0.7508  0.4516  0.0971  11.00000  0.05    0.18
Q28   1   0.6841  0.7500  0.1253  10.50000  0.05    0.18
Q29   1   0.5327  0.7008  0.3221  11.00000  0.05    0.18
Q30   1   0.5690  0.6491 -0.0184  11.00000  0.05    0.18
Q31   1   0.9012  0.2500  0.1516  10.50000  0.05    0.17
Q32   1   0.7744  0.7500  0.0224  10.50000  0.05    0.17
Q33   1   0.5841  0.4959  0.2864  11.00000  0.05    0.16
Q34   1   0.3972  0.3563  0.0867  11.00000  0.05    0.16
Q35   1   0.7277  0.4893 -0.0147  11.00000  0.05    0.16
Q36   1   0.2424  0.4872  0.1222  11.00000  0.05    0.16
Q37   1   0.5166  0.3184  0.0774  11.00000  0.05    0.16
Q38   1   0.5534  0.4947  0.2172  11.00000  0.05    0.15
Q39   1   0.7121  0.6949 -0.0432  11.00000  0.05    0.15
Q40   1   0.4970  0.5872  0.4007  11.00000  0.05    0.15
;
_shelx_res_checksum                75578
_shelx_hkl_file
;
   2   0   0  107.29    8.30
   3   0   0    1.80    0.60
   3   0   0    0.60    0.60
   4   0   0 1278.57  106.49
   4   0   0 1619.94  106.69
   5   0   0   -0.30    0.60
   5   0   0    0.60    0.50
   6   0   0  157.08   12.30
   6   0   0  142.29   12.20
   7   0   0    0.00    0.70
   7   0   0   -0.30    0.90
   8   0   0   89.49    8.40
   9   0   0   -0.50    1.40
   9   0   0   -1.30    1.30
   0   1   0    0.00    0.30
   0  -1   0   -0.20    0.40
   0   1   0   -0.10    0.10
  -1  -1   0    1.20    0.80
   1  -1   0    1.10    0.30
   1   1   0    1.80    0.90
  -1   1   0    0.80    0.30
  -1   1   0    0.80    0.60
   1   1   0    0.60    0.40
  -2  -1   0 3134.79  220.48
  -2   1   0 2878.21  219.88
   3   1   0    0.10    0.60
   3  -1   0    0.70    0.50
   4  -1   0 1890.11  137.99
   4   1   0 1857.31  138.19
   4  -1   0 1894.11  137.99
   5   1   0    0.60    0.70
   5  -1   0    1.00    0.70
   5  -1   0    1.00    0.70
   5   1   0    0.20    0.90
   6  -1   0   11.50    2.20
   6   1   0    5.90    2.00
   7   1   0    0.10    1.10
   7   1   0    0.40    1.10
   7  -1   0    1.70    1.10
   7  -1   0    1.20    0.90
   8  -1   0 1065.49   82.79
   8   1   0 1191.68   83.29
   8  -1   0 1068.39   82.69
   8   1   0 1129.39   83.29
   9   1   0    0.10    1.40
   9  -1   0   -2.10    1.10
   9   1   0    1.10    1.10
   9  -1   0    0.60    1.40
   0   2   0 5272.07  386.46
  -1   2   0    1.00    0.90
   1   2   0    0.90    1.20
  -1   2   0    2.20    0.50
   1   2   0    2.10    0.60
   2   2   0  828.42   60.89
   2  -2   0  861.01   59.19
  -2  -2   0  737.93   60.69
  -2   2   0  720.13   60.29
   2   2   0  865.91   59.59
  -2  -2   0  818.52   59.59
   3  -2   0    0.70    0.40
   3   2   0    0.10    0.50
   4  -2   0 1462.95  116.49
   4  -2   0 1700.83  116.59
   4   2   0 1604.44  117.09
   5   2   0    0.60    0.80
   5   2   0   -0.20    0.70
   5  -2   0   -0.50    0.50
   5  -2   0    1.70    0.90
   6  -2   0 1794.12  129.79
   6  -2   0 1756.72  129.79
   6   2   0 1741.03  130.49
   7  -2   0   -1.10    0.90
   7   2   0   -0.30    1.00
   7  -2   0   -0.10    0.80
   7   2   0    0.30    1.30
   8  -2   0   29.00    4.00
   8   2   0   35.90    5.20
   9  -2   0   -1.30    1.30
   9   2   0   -1.50    1.50
   9   2   0   -1.50    1.40
   9  -2   0   -0.10    1.20
   0  -3   0    1.40    1.20
   0   3   0    1.40    0.60
  -1   3   0   -0.60    1.00
   1  -3   0    0.20    1.20
  -1  -3   0    0.10    0.40
   1   3   0    0.50    0.40
   1   3   0    0.00    1.00
   1  -3   0    0.30    0.30
  -2   3   0 1625.74  136.29
   2   3   0 1741.03  136.79
  -2  -3   0 1927.31  134.99
   2   3   0 2045.40  135.09
   3   3   0    3.70    1.10
  -3   3   0    1.00    1.10
  -3  -3   0    1.90    0.90
   3  -3   0    3.00    0.70
   4  -3   0 2470.85  168.68
   4  -3   0 2309.87  168.78
   4   3   0 2132.89  169.48
   5   3   0    1.00    0.90
   5  -3   0    1.20    0.80
   5  -3   0    0.50    0.50
   6  -3   0   55.09    5.00
   7   3   0   -0.10    1.00
   7  -3   0    1.00    0.90
   7  -3   0    0.50    0.70
   7   3   0    0.70    1.40
   8   3   0  650.53   48.80
   8  -3   0  611.94   47.40
   8  -3   0  616.24   47.60
   8   3   0  666.63   48.70
   0  -4   0 2493.95  185.98
   0   4   0 2679.23  186.38
   0  -4   0 2443.86  189.18
  -1  -4   0    5.30    2.80
  -1   4   0    5.70    0.90
   1   4   0    3.00    1.90
  -1   4   0    3.30    0.70
  -1   4   0    2.30    1.70
   1   4   0    3.90    1.00
  -1  -4   0    3.10    0.80
   1  -4   0    2.70    1.50
   1  -4   0    4.30    0.70
  -2   4   0  202.88   18.10
   2  -4   0  208.48   15.30
  -2   4   0  215.08   15.30
   2   4   0  220.18   16.00
  -2  -4   0  198.68   15.90
  -2  -4   0  184.28   18.20
   2   4   0  187.78   18.30
  -3   4   0    0.00    1.30
   3   4   0    0.40    0.60
   4   4   0 1724.63  127.29
   5   4   0    3.90    1.50
   5  -4   0    6.80    1.10
   5  -4   0    6.50    1.10
   6   4   0 1307.97   99.79
   6  -4   0 1353.06   98.59
   6   4   0 1387.96   99.99
   6  -4   0 1314.67   98.59
   7   4   0    2.70    1.50
   7  -4   0   -0.30    1.00
   7  -4   0    1.50    0.90
   7   4   0    0.00    1.10
   7  -4   0    0.50    0.80
   8   4   0   40.00    5.50
   8  -4   0   45.60    4.30
   0   5   0    2.70    0.80
   0   5   0    1.10    1.90
   0  -5   0    0.90    2.30
   0  -5   0    1.90    0.80
   1   5   0    0.60    1.70
   1   5   0    0.50    0.70
  -1  -5   0    4.40    4.20
  -1   5   0    2.20    1.00
  -1   5   0    1.10    0.50
  -1   5   0    0.80    1.60
   1  -5   0    0.90    0.50
  -1  -5   0    1.60    0.70
  -2  -5   0 1037.50   80.89
   2  -5   0 1113.69   80.29
   2   5   0 1113.69   80.99
  -2   5   0 1029.80   83.79
  -2   5   0 1160.38   80.29
   3   5   0    6.80    1.50
  -3   5   0    7.20    2.90
   4   5   0 1329.67   99.89
   5   5   0    0.50    0.90
   6   5   0   38.60    4.90
   7   5   0    3.00    1.90
   7   5   0    0.80    1.50
   8   5   0  701.63   54.99
   8   5   0  735.23   55.29
   0   6   0 4825.72  328.17
   0  -6   0 4388.46  328.57
   0   6   0 4221.38  332.37
   1   6   0    3.00    1.10
   1   6   0    3.70    2.60
  -1   6   0    3.90    0.80
   1  -6   0    5.30    1.00
  -1   6   0    1.80    2.20
  -1   6   0    3.70    1.00
  -1  -6   0    2.90    0.90
  -2   6   0  297.07   21.50
   2  -6   0  297.67   21.50
   2   6   0  261.47   22.10
   3   6   0   -0.30    0.60
   4   6   0  588.34   44.70
   5   6   0    1.90    1.40
   7   6   0    1.80    1.50
   8   6   0   20.80    4.50
   0  -7   0    1.90    1.10
   0   7   0    0.60    2.30
   0   7   0    4.00    1.30
   0   7   0    4.30    1.10
  -1   7   0    7.70    1.60
  -1   7   0    5.50    1.20
   1   7   0    2.70    3.40
  -1   7   0    4.30    2.80
   1   7   0    6.60    1.50
   2   7   0 1087.09   88.59
   2  -7   0 1167.48   87.89
  -2   7   0 1235.68   87.59
  -2   7   0 1260.17   87.89
  -2   7   0 1228.58   93.59
   3  -7   0    2.50    0.70
   3   7   0    0.30    0.90
   4   7   0  361.16   28.30
   5   7   0    0.50    1.00
   6   7   0   17.20    3.80
   7   7   0    2.50    1.80
   7   7   0    0.80    1.80
   0   8   0 2027.90  148.19
   0   8   0 2134.69  154.68
   0   8   0 1896.61  147.89
  -1   8   0    6.70    4.40
   1  -8   0    3.20    1.10
  -1   8   0    4.70    1.50
   1   8   0    2.30    1.30
  -2   8   0  151.58   11.10
   2   8   0  129.59   12.00
  -2   8   0  148.89   11.40
   3  -8   0    0.60    0.70
  -3   8   0    2.00    1.00
   3   8   0    1.60    1.30
   4   8   0  325.97   25.90
   5   8   0    2.60    1.50
   6   8   0  304.47   23.30
   6   8   0  250.97   22.50
   7   8   0    3.20    2.00
   7   8   0   -0.30    1.90
   0   9   0   -0.50    1.10
  -1   9   0    0.40    1.20
  -1   9   0   -0.30    0.90
   1   9   0    0.00    1.20
   2  -9   0  542.75   44.50
   2   9   0  613.14   45.50
  -2   9   0  603.54   44.60
  -2   9   0  631.64   44.20
   3  -9   0    0.70    0.80
   3   9   0    4.20    1.90
  -3   9   0    0.90    1.10
   4   9   0  277.17   22.60
   5   9   0    1.10    1.40
   6   9   0   13.00    3.40
   6   9   0    6.70    2.70
   0  10   0  303.17   23.70
   1  10   0    2.30    1.40
  -1  10   0    1.40    1.50
  -2  10   0   88.19    8.00
   2  10   0  101.59    8.90
  -3  10   0    0.50    1.10
   3  10   0    1.40    1.50
   3 -10   0   -0.30    0.90
   4  10   0  188.68   16.30
   5  10   0    4.20    2.20
   5  10   0    1.50    2.00
   6  10   0  339.07   27.80
   0  11   0    0.70    1.50
   1  11   0    0.00    1.40
  -1  11   0    0.00    1.50
   2  11   0  177.38   14.70
  -2  11   0  167.98   13.90
   3  11   0    1.10    1.90
  -3  11   0   -0.40    1.60
   4  11   0  229.58   19.50
   5  11   0    1.50    2.00
   5  11   0   -0.20    2.10
   0  12   0  324.37   25.60
  -1  12   0    1.00    1.50
  -1  12   0    0.40    1.90
   1  12   0    1.20    1.90
  -2  12   0   21.70    3.90
   2  12   0   12.10    3.00
  -3  12   0   -1.50    1.70
   3  12   0   -0.30    1.90
   0  13   0    0.80    2.20
   0  13   0   -1.30    2.40
  -1  13   0    0.20    2.00
   1  13   0    1.10    2.10
   1  13   0   -1.00    2.00
  -1  13   0   -1.10    2.10
   0   0   1   -0.10    0.10
   0   0   1   -0.10    0.10
   1   0   1   12.50    1.30
   2   0   1 1670.83  136.19
  -2   0  -1 1905.71  136.09
   2   0   1 2003.00  136.09
   3   0   1   10.20    1.70
   4   0   1 1955.60  146.59
   4   0  -1 2044.50  146.89
   4   0   1 1997.00  146.79
   5   0  -1    4.80    1.30
   5   0  -1    9.50    1.70
   5   0   1    7.10    1.60
   6   0   1   39.20    3.80
   6   0  -1   28.40    3.70
   7   0   1   69.39    7.20
   7   0  -1   65.79    6.70
   7   0  -1   85.69    7.10
   7   0   1   73.99    6.90
   8   0  -1 1318.77   95.59
   8   0   1 1276.77   95.39
   8   0  -1 1279.07   95.59
   8   0   1 1262.07   95.49
   9   0   1    3.60    1.60
   9   0   1    4.30    1.80
   9   0  -1    5.50    2.10
   9   0  -1    2.20    1.70
   0   1   1 9675.03  672.73
   0   1  -1 9999.00  710.83
   0  -1  -1 9010.90  672.33
   0   1   1 8665.43  705.13
   0   1  -1 8294.37  671.13
   1  -1   1  101.49    8.30
   1   1   1  122.99    8.50
  -2  -1  -1  791.92   60.59
   2  -1   1  810.12   60.39
   2  -1   1  872.41   60.49
  -2   1  -1  821.32   60.49
   2   1   1  823.02   60.59
   3   1  -1  241.78   17.70
   3   1  -1  212.08   17.80
   3  -1   1  234.38   17.20
  -3  -1  -1  236.88   17.50
   3   1   1  217.18   17.60
   3   1   1  233.58   17.50
   4  -1   1  954.90   68.89
   4  -1  -1  944.31   68.89
   4   1   1  899.71   69.09
   5  -1   1    0.10    0.50
   5  -1   1    0.90    0.70
   5   1  -1    0.30    0.80
   5  -1  -1    0.70    0.80
   5   1   1    0.10    0.80
   5   1   1   -0.40    0.40
   5  -1  -1    0.20    0.50
   6   1  -1  825.42   63.49
   6   1  -1  794.22   63.39
   6  -1   1  907.21   63.29
   6  -1   1  902.01   63.09
   6  -1  -1  856.61   63.29
   6  -1  -1  877.51   63.19
   6   1   1  777.22   63.29
   7   1  -1    2.30    1.50
   7   1  -1    2.10    1.40
   7  -1   1    3.40    1.20
   7   1   1    4.20    1.60
   7   1   1    2.40    1.30
   7  -1  -1    1.60    1.30
   7  -1  -1    2.00    1.30
   8  -1   1   45.40    5.10
   8   1  -1   48.50    5.50
   8   1   1   54.59    5.70
   8  -1  -1   53.09    5.40
   9   1  -1    2.10    1.60
   9  -1   1    2.40    1.50
   9   1  -1    2.00    1.70
   9  -1   1    3.50    1.70
   9   1   1    0.20    1.60
   9  -1  -1    3.30    1.80
   9  -1  -1    1.10    1.40
   9   1   1    0.90    1.60
   0  -2   1    0.10    0.30
   0   2  -1    0.70    0.50
   0   2  -1    0.20    0.30
   0   2   1    1.20    0.50
   1  -2   1 1876.51  142.09
   1   2  -1 1946.41  142.39
  -1   2   1 2031.90  142.19
   1   2   1 1923.11  142.39
  -2  -2  -1 2713.93  188.58
   2   2  -1 2365.56  189.78
   2   2  -1 2881.31  188.68
   2  -2   1 2460.05  188.08
   2   2   1 2881.51  188.58
  -2   2  -1 2411.86  188.18
   2  -2  -1 2305.57  189.38
  -3  -2  -1    2.40    1.40
   3   2  -1    4.00    1.70
   3   2  -1    7.70    1.60
   3   2   1    4.90    1.30
  -3   2  -1    5.00    1.70
   3  -2  -1    4.10    0.80
  -3   2  -1    4.50    0.90
   4  -2   1 2327.87  157.58
   4  -2   1 2145.59  157.48
  -4  -2  -1 2088.99  159.08
   4   2  -1 2101.39  158.18
  -4   2  -1 2116.29  158.28
   4   2   1 2120.89  158.08
   5  -2   1  116.79    8.40
   5   2  -1   92.19    8.80
   5  -2   1  109.19    8.50
   5   2   1   97.19    8.80
   5   2   1   94.49    8.90
   5  -2  -1  109.29    8.40
   6  -2   1   32.90    3.60
   6  -2  -1   32.10    3.50
   6   2   1   28.30    4.40
   7   2  -1   35.10    4.10
   7   2  -1   24.30    3.90
   7  -2   1   27.40    3.20
   7  -2   1   24.80    2.90
   7  -2  -1   22.40    3.00
   7   2   1   24.30    3.30
   8   2  -1  871.31   65.39
   8  -2   1  822.12   64.49
   8   2  -1  948.91   65.49
   8  -2   1  804.72   64.29
   8   2   1  892.51   65.49
   8  -2  -1  819.52   64.59
   8   2   1  907.91   65.29
   9   2  -1   -0.80    2.30
   9  -2   1    0.40    1.40
   9  -2  -1   -1.60    1.20
   9   2   1   -1.50    1.60
   0   3  -1 1493.55  105.19
   0   3   1 1536.85  105.19
   0  -3  -1 1320.87  107.29
   0  -3  -1 1481.75  105.19
   0  -3   1 1390.76  105.19
   0   3  -1 1379.06  105.09
   1  -3   1  255.77   18.60
   1   3  -1  255.07   18.90
  -1   3   1  272.97   18.70
  -1  -3  -1  249.68   18.90
   1  -3   1  230.48   18.60
  -1   3  -1  271.17   18.50
  -1   3  -1  229.98   18.50
   1  -3  -1  210.68   20.50
   1   3   1  254.87   18.90
   1  -3  -1  270.07   18.70
  -1  -3   1  240.98   18.90
   2  -3   1  536.25   41.00
   2   3  -1  578.34   41.70
  -2  -3  -1  544.75   43.60
  -2   3   1  612.44   41.30
   2   3  -1  557.34   43.70
  -2  -3  -1  533.85   41.50
   2  -3  -1  559.94   43.30
  -2   3  -1  551.14   41.00
  -2   3  -1  549.95   43.40
   2  -3  -1  562.44   41.10
   2   3   1  554.54   41.60
   3   3  -1    2.10    1.20
   3  -3   1    2.60    0.60
  -3  -3  -1    0.60    0.70
   3   3  -1    1.20    0.70
  -3  -3  -1   -0.10    1.30
   3   3   1    2.30    0.90
   3  -3  -1    1.20    0.60
  -3   3  -1    2.00    0.60
  -3   3  -1    2.00    1.40
   4   3  -1 1443.66   97.09
   4  -3   1 1303.07   96.59
  -4  -3  -1 1184.98   98.49
   4   3   1 1186.18   96.89
   4   3   1 1486.15   97.09
  -4   3  -1 1255.17   97.79
   5  -3   1   19.50    2.20
   5   3  -1   13.00    2.70
   5  -3   1   21.30    2.30
   5  -3  -1   24.30    2.20
   5  -3  -1   18.20    2.40
   6  -3   1 1976.90  143.29
   6  -3   1 2070.29  143.39
   6   3  -1 1829.82  144.29
   6  -3  -1 1944.01  143.49
   6   3   1 2016.20  144.49
   6  -3  -1 2135.09  143.29
   6  -3  -1 1885.71  143.59
   6   3   1 1755.32  144.09
   7   3  -1   39.10    5.10
   7  -3   1   45.50    4.00
   7  -3   1   37.80    4.00
   7   3  -1   45.60    4.90
   7  -3  -1   41.20    4.20
   7   3   1   39.30    4.90
   7   3   1   46.90    4.90
   7  -3  -1   38.00    4.00
   8   3  -1   78.49    7.70
   8  -3   1   59.49    6.20
   8   3   1   71.79    7.50
   8  -3  -1   62.69    6.10
   0   4   1    0.80    0.50
   0   4  -1    0.70    0.70
   0   4  -1    0.70    0.50
   0  -4  -1   -0.50    1.20
   0  -4  -1    0.70    0.50
   0  -4   1    0.10    0.40
   0   4  -1   -0.40    1.60
  -1  -4  -1  114.89    9.10
   1  -4   1  106.19    8.60
   1   4  -1  117.99    9.10
  -1   4   1  126.49    8.90
  -1   4  -1  101.09    8.70
   1   4   1  113.49    9.10
  -1   4  -1  121.29    8.70
   1  -4  -1  119.99    8.80
  -1  -4   1  105.49    9.00
   2  -4   1 1629.94  110.69
  -2  -4  -1 1507.25  111.29
   2   4  -1 1364.36  113.79
   2   4  -1 1663.73  111.49
  -2  -4  -1 1465.35  114.09
  -2   4  -1 1390.86  110.59
  -2  -4   1 1563.54  111.39
   2   4   1 1636.64  111.39
   2  -4  -1 1423.76  113.79
  -2   4  -1 1451.45  113.79
   3  -4   1   13.00    1.30
  -3  -4  -1   12.00    3.30
   3   4  -1   17.30    4.00
   3   4  -1   11.50    2.20
  -3   4  -1   15.60    3.90
   3  -4  -1   13.70    1.40
   3   4   1   10.30    1.90
   4   4  -1 2002.00  156.28
  -4  -4  -1 2243.28  159.28
   4  -4  -1 2287.87  155.48
   4   4   1 1962.90  156.18
   5   4  -1    6.90    2.40
   5  -4   1    6.50    1.10
   5   4   1    5.40    1.80
   5  -4  -1    7.80    1.40
   5   4   1    2.60    1.40
   6   4  -1   89.79    8.60
   6  -4  -1  105.79    7.70
   6   4   1   88.29    8.40
   6  -4  -1   80.39    7.50
   7  -4   1    2.70    0.90
   7   4  -1    4.10    1.90
   7   4  -1    3.40    1.70
   7   4   1    3.30    1.60
   7  -4  -1    0.70    0.90
   7   4   1    1.00    1.40
   8   4  -1  735.93   55.19
   8  -4   1  681.93   51.79
   8  -4  -1  656.83   52.09
   8   4   1  713.43   54.59
   8   4   1  717.33   53.39
   0  -5  -1 3247.78  253.97
   0   5  -1 3551.94  250.27
   0  -5   1 3288.97  250.17
   0   5  -1 3443.06  250.17
   0   5   1 3594.64  250.27
   0  -5  -1 3378.56  250.27
  -1  -5  -1    3.00    0.90
   1  -5   1    4.50    0.90
   1   5  -1    2.00    2.30
  -1   5   1    6.00    1.20
  -1  -5  -1    5.50    2.90
   1   5  -1    4.90    1.30
   1   5   1    4.60    1.20
   1  -5  -1    3.50    2.20
  -1  -5   1    3.60    1.00
  -1   5  -1    5.90    2.90
  -1   5  -1    3.60    0.80
  -1   5  -1    5.20    1.00
   1  -5  -1    4.10    0.90
   2   5  -1  352.36   30.60
   2   5  -1  345.57   27.20
  -2   5   1  378.86   26.70
  -2   5  -1  400.96   30.80
   2   5   1  349.57   27.10
   2  -5  -1  374.56   30.70
   2  -5  -1  359.36   26.60
  -2  -5   1  328.47   27.60
  -2   5  -1  343.17   26.40
  -3  -5  -1   19.40    4.70
   3   5  -1   45.80    8.20
   3   5  -1   31.20    3.40
   3   5   1   22.00    3.10
  -3   5  -1   34.20    6.50
   3  -5  -1   32.10    2.70
  -4  -5  -1  674.63   57.49
   4   5  -1  746.63   54.49
   4   5   1  749.03   55.39
  -4   5  -1  711.23   56.69
   5   5  -1    3.40    1.70
   5   5   1    2.90    1.50
   5   5   1    1.90    1.10
   5  -5  -1    3.90    1.00
   6   5  -1  917.31   71.29
   6   5   1  978.10   71.49
   6   5   1  945.21   71.19
   7   5  -1    0.30    1.70
   7   5  -1    5.90    1.90
   7   5   1    2.40    1.60
   7   5   1    0.40    1.60
   7  -5  -1    1.60    1.00
   7  -5  -1    1.90    1.10
   8   5  -1   85.39    8.90
   8   5   1   75.79    8.50
   0   6   1    0.90    0.90
   0   6  -1    1.10    1.00
   0  -6   1   -0.30    0.80
   0  -6  -1    1.00    0.70
   0   6  -1    1.80    1.00
   0  -6  -1    0.40    2.40
   0   6  -1   -2.70    3.30
  -1  -6  -1   13.80    2.30
  -1   6   1   20.10    2.20
   1   6  -1   10.00    3.90
  -1   6   1   19.20    1.90
  -1  -6  -1   20.10    6.80
   1   6  -1   17.00    2.20
   1  -6   1   16.20    1.90
   1   6   1   17.40    2.20
  -1   6  -1    9.00    3.40
  -1  -6   1   13.50    1.90
  -1   6  -1   19.00    2.00
   1  -6  -1   17.70    2.00
   1  -6  -1   15.20    4.30
   2   6  -1  926.61   83.29
  -2  -6  -1  994.80   83.79
  -2   6   1 1195.18   79.09
   2   6  -1 1045.90   79.59
   2  -6   1 1069.49   78.79
   2  -6  -1 1062.29   83.89
  -2   6  -1 1109.79   83.89
   2   6   1 1004.20   79.49
   2  -6  -1 1139.29   78.99
  -2   6  -1 1134.59   78.79
  -3   6   1    9.60    1.50
   3   6  -1    4.90    1.70
   3   6  -1    8.00    3.20
   3   6   1    5.20    1.50
  -3   6  -1    7.20    3.60
   3  -6  -1    8.50    1.30
   4   6  -1  908.31   69.09
   4   6   1  834.72   68.79
   4  -6  -1  950.50   67.79
  -4   6  -1 1003.50   72.59
   5   6  -1    4.60    1.80
   5   6   1    3.60    1.50
   5   6   1    6.40    2.00
   6   6  -1   19.20    3.90
   6   6   1   24.60    4.10
   7   6   1   -0.60    1.50
   7   6   1   -0.20    1.90
   8   6  -1  579.84   47.40
   8   6  -1  649.54   47.90
   8   6   1  597.24   47.40
   8   6   1  621.64   47.70
   0  -7  -1 2473.95  198.78
   0  -7   1 2570.44  198.68
   0   7  -1 2823.22  198.78
   0   7   1 2845.42  198.78
   0   7  -1 2841.32  198.58
   0  -7  -1 2700.33  204.58
  -1   7   1   23.20    2.60
   1   7  -1   17.20    5.90
  -1   7   1   22.30    2.40
   1  -7   1   20.40    2.30
  -1  -7  -1   25.80    7.20
   1  -7  -1   18.30    2.30
  -1   7  -1   23.00    2.40
   1  -7  -1   34.50    7.80
   1   7   1   19.90    2.70
  -1   7  -1   15.70    4.80
  -2   7   1  276.47   21.00
   2   7  -1  279.77   26.70
   2   7  -1  247.38   21.50
   2  -7   1  278.77   20.80
   2   7   1  242.88   21.50
   2  -7  -1  276.77   21.00
  -2   7  -1  288.17   20.80
  -2   7  -1  309.97   20.70
  -3  -7  -1   17.90    6.30
  -3   7   1   25.70    2.60
   3   7  -1   17.00    5.10
   3   7  -1   18.20    3.10
   3  -7  -1   23.40    2.30
  -3   7  -1   28.10    6.80
   3   7   1   17.00    3.10
   4   7  -1  277.57   21.60
  -4   7  -1  219.58   24.20
   4   7   1  281.97   21.60
   4  -7  -1  275.27   20.20
   5   7  -1    1.00    1.20
   5   7   1    1.40    1.30
   5   7   1    0.20    1.20
   6   7  -1  380.16   31.10
   6   7   1  395.16   31.10
   6   7   1  401.46   31.30
   7   7  -1    1.80    2.00
   7   7  -1    2.70    2.10
   7   7   1    4.00    2.20
   7   7   1    2.20    1.80
   0   8  -1   -3.00    3.20
   0   8  -1    0.10    1.20
   0  -8  -1   -1.70    5.10
   0   8   1    0.40    1.40
  -1   8   1    3.00    1.10
   1  -8   1    1.70    0.90
   1   8  -1    0.30    3.00
   1   8  -1    1.50    0.80
  -1   8   1    2.60    1.00
  -1  -8  -1    2.20    3.60
   1   8   1    2.10    1.10
  -1   8  -1    2.50    1.00
  -1   8  -1    0.60    0.90
  -1   8  -1    0.80    3.40
  -2   8   1  732.03   51.09
   2   8  -1  656.73   51.69
   2   8  -1  587.74   56.59
   2  -8   1  670.13   50.89
  -2  -8  -1  739.13   58.59
  -2   8  -1  710.23   50.69
   2  -8  -1  662.23   50.99
  -2   8  -1  752.62   50.89
  -2   8  -1  666.83   57.19
   2   8   1  665.03   51.69
   3   8  -1    6.90    2.10
  -3   8   1    8.90    1.70
   3  -8  -1    8.80    1.80
  -3   8  -1   11.90    4.80
   3   8   1    9.00    2.10
   4   8  -1  435.76   34.20
   4   8   1  442.56   34.20
   5   8  -1    1.20    1.30
   5   8   1    1.80    1.30
   5   8   1    1.70    1.70
   6   8  -1   15.30    3.30
   6   8   1   17.40    3.70
   7   8  -1    6.70    2.60
   7   8  -1    1.70    2.20
   7   8   1    4.30    2.70
   7   8   1    5.50    2.70
   0   9  -1  633.84   51.79
   0   9   1  572.94   44.40
   0   9  -1  579.24   44.20
  -1   9   1    1.80    1.20
  -1   9   1    3.40    1.20
   1   9  -1    8.10    4.70
   1   9  -1    4.40    1.60
  -1   9  -1    2.10    1.70
   1   9   1    2.40    1.40
  -1   9  -1   14.20    5.20
  -1   9  -1    3.40    1.30
   2   9  -1  134.49   11.40
  -2   9   1  128.39   10.60
   2  -9   1  116.79   10.30
   2   9  -1  140.89   17.70
   2   9   1  124.99   11.30
  -2   9  -1  136.89   10.50
  -2   9  -1  168.18   18.20
   3   9  -1    3.60    1.60
  -3   9   1   -0.50    1.10
  -3   9  -1   -2.80    2.90
   3  -9  -1    1.80    1.00
   3   9   1    0.60    1.30
   4   9  -1  193.08   16.10
   4   9   1  178.58   16.00
   4   9   1  187.38   15.90
   5   9  -1    4.10    2.20
   5   9   1    6.40    2.50
   5   9   1    3.00    2.20
   6   9  -1  407.96   33.70
   6   9   1  407.66   33.60
   6   9   1  453.45   34.10
   0  10   1    0.10    1.30
   0  10  -1   -0.30    1.80
   0  10  -1   -0.50    4.40
   1  10  -1   21.10    8.40
  -1  10   1   21.90    3.00
   1  10  -1   21.20    3.40
  -1  10   1   18.30    3.10
   1  10   1   17.40    3.30
  -1  10  -1   20.80    3.10
  -1  10  -1   19.00    6.60
   2  10  -1  295.07   23.70
  -2  10   1  287.47   23.00
  -2  10  -1  294.67   22.80
  -2  10  -1  304.17   22.60
   2  10   1  311.37   23.80
  -3  10   1    1.60    1.30
   3  10  -1    1.40    1.60
   3  10   1    2.30    1.50
   4  10  -1  286.47   23.20
   4  10   1  277.47   23.10
   5  10  -1    7.30    2.60
   5  10   1    7.30    2.90
   5  10   1    9.60    3.00
   0  11  -1  331.67   25.50
   0  11   1  317.97   25.50
   1  11  -1   -1.40    1.40
  -1  11   1    1.60    1.40
  -1  11   1    2.90    1.80
  -1  11  -1    1.30    1.50
   1  11   1    0.40    1.50
   1  11   1    0.00    1.50
   2  11  -1   43.50    5.40
  -2  11   1   39.30    4.60
   2  11   1   37.70    5.00
   2  11   1   52.19    5.80
  -2  11  -1   40.60    4.50
  -3  11   1    4.80    1.80
   3  11  -1    5.90    2.10
   3  11   1    8.70    2.90
   3  11   1    4.00    2.10
   4  11  -1  130.99   12.10
   4  11   1  126.19   12.00
   4  11   1  124.19   12.10
   5  11  -1    0.60    2.00
   5  11   1    5.30    2.60
   5  11   1   -0.10    2.10
   0  12  -1   -0.20    1.70
   0  12   1   -1.30    1.80
   0  12   1    0.10    1.90
  -1  12   1    1.10    1.80
   1  12  -1    1.70    2.10
  -1  12   1    0.20    1.70
  -1  12  -1    4.70    2.00
   1  12   1    3.40    1.90
   1  12   1    1.80    2.10
   2  12  -1  135.89   11.60
  -2  12   1  110.59   10.70
  -2  12  -1  113.19   10.50
   2  12   1  149.99   11.90
   2  12   1  128.09   11.50
  -3  12   1    0.20    1.90
   3  12  -1    6.10    2.60
   3  12   1    0.20    2.10
   3  12   1    4.70    2.90
   0  13  -1  182.08   16.10
   0  13   1  223.78   16.30
   0  13   1  174.88   16.20
  -1  13   1    2.30    3.10
   1  13  -1    1.00    2.00
  -1  13   1   -0.40    2.20
   1  13   1    5.90    2.30
   1  13   1    4.30    2.50
  -1  13  -1   -1.50    1.90
   0   0  -2 5921.81  433.86
   0   0   2 5573.54  467.55
  -1   0  -2   69.89    5.10
  -1   0   2   62.89    5.10
   1   0  -2   63.19    5.00
  -2   0  -2 2131.49  156.48
   2   0   2 2228.98  156.68
  -2   0  -2 2052.19  156.28
   2   0   2 2137.79  156.28
   3   0   2 1010.70   75.49
  -3   0  -2  976.60   75.39
   3   0   2 1069.99   75.39
  -3   0  -2 1032.60   75.19
   4   0   2  987.60   66.19
   4   0   2  802.92   66.19
   5   0   2   -0.60    0.70
   5   0   2    0.40    0.50
   5   0  -2   -0.10    0.60
   6   0   2 1311.77   95.19
   6   0  -2 1231.28   95.49
   6   0   2 1321.77   95.49
   7   0   2   15.40    2.50
   7   0  -2   11.90    2.60
   7   0   2   11.70    2.50
   7   0  -2   19.60    3.10
   8   0   2   23.60    3.80
   8   0  -2   25.20    4.00
   9   0   2   10.10    2.20
   9   0  -2    9.50    2.50
   9   0   2    5.60    2.00
   9   0  -2    6.60    2.10
   0   1   2    0.40    0.40
   0  -1  -2    1.10    0.50
   0   1   2    0.30    0.40
   0  -1   2    0.50    0.40
   1  -1   2 1035.90   69.79
  -1   1   2 1030.50   70.09
  -1   1   2  949.40   69.79
   1  -1   2  926.61   69.89
   1   1   2  940.01   69.99
   1  -1  -2  934.41   69.99
  -1   1  -2  868.61   69.89
   1   1   2  944.71   69.99
  -2  -1  -2 4906.51  353.56
  -2   1  -2 4766.32  353.36
   3  -1   2   45.00    4.20
  -3  -1  -2   59.29    4.40
   3   1   2   42.00    4.30
   4   1  -2 1638.94  122.59
   4  -1   2 1695.53  122.19
   4  -1   2 1639.44  121.99
  -4  -1  -2 1639.64  122.39
   4   1  -2 1732.03  122.79
   4   1   2 1665.93  122.29
   4   1   2 1635.04  122.49
   5  -1   2    3.00    0.90
  -5  -1  -2    6.10    1.80
   5  -1   2    4.60    1.30
   5   1  -2    1.60    1.00
   5   1   2    2.60    1.10
   5   1   2    3.60    1.20
   6   1  -2   79.49    7.70
   6  -1   2   95.49    7.30
   6   1   2   82.89    7.50
   6  -1  -2   78.99    7.40
   7  -1   2   29.80    3.30
   7   1  -2   28.30    3.70
   7   1  -2   31.10    4.00
   7  -1   2   28.20    3.60
   7  -1  -2   33.60    3.60
   7   1   2   27.90    3.50
   7   1   2   34.60    4.10
   7  -1  -2   26.70    3.50
   8  -1   2  844.92   63.89
   8   1  -2  856.11   64.29
   8  -1   2  827.02   63.69
   8   1  -2  903.71   64.49
   8   1   2  883.71   64.19
   8   1   2  856.21   64.29
   8  -1  -2  866.41   64.09
   8  -1  -2  792.32   63.79
   9   1  -2   -1.10    1.30
   9   1  -2   -1.40    1.20
   9  -1   2    0.70    1.20
   9  -1   2    0.80    1.50
   9   1   2    1.30    1.70
   9  -1  -2   -1.20    1.20
   9   1   2   -1.00    1.20
   9  -1  -2    0.50    1.40
   0   2   2 6295.37  584.44
   0  -2   2 7779.52  523.95
   0   2  -2 6413.06  520.35
   1  -2   2  310.17   22.50
   1   2  -2  308.67   22.60
  -1  -2  -2  285.67   22.60
  -1   2   2  334.57   22.60
  -1  -2  -2  301.97   22.60
  -1   2  -2  276.57   22.40
   1   2   2  307.17   22.60
   1   2   2  282.27   22.60
   1  -2  -2  320.57   22.50
   2  -2   2  752.82   56.59
  -2  -2  -2  760.22   56.89
  -2   2  -2  755.82   56.59
   2   2   2  789.72   56.89
   2   2   2  796.82   56.99
   2  -2  -2  768.42   56.69
   3   2  -2  166.28   12.50
   3  -2   2  158.08   11.90
   3   2  -2  153.78   13.70
   3   2   2  150.58   12.30
   3   2   2  171.08   13.60
   3  -2  -2  149.99   13.00
  -3   2  -2  151.88   12.00
   3  -2  -2  150.48   12.10
   4  -2   2 1252.87   83.39
   4   2  -2 1104.09   84.79
   4   2   2 1103.99   83.89
  -4   2  -2 1110.49   83.49
   4  -2  -2 1088.29   84.09
   5  -2   2   54.49    4.40
  -5  -2  -2   55.69    5.70
   5   2  -2   37.30    4.50
   5  -2   2   41.40    3.90
   5  -2  -2   52.99    4.20
   5   2   2   47.10    4.80
   5   2   2   35.80    4.30
   6  -2   2 1105.59   79.89
   6  -2   2 1152.48   79.69
   6   2  -2  994.70   80.39
   6  -2  -2 1129.29   79.79
   6   2   2 1052.79   80.49
   6  -2  -2 1033.90   79.99
   7   2  -2   45.70    4.80
   7  -2   2   40.60    3.80
   7  -2   2   38.40    4.10
   7  -2  -2   32.50    4.00
   7  -2  -2   39.00    4.00
   7   2   2   39.30    4.40
   7   2   2   34.50    4.70
   8  -2   2   61.29    6.30
   8   2  -2   76.19    7.40
   8  -2  -2   73.29    6.70
   8   2   2   69.19    7.10
   0   3  -2    0.40    0.50
   0   3  -2    1.80    0.60
   0  -3   2    1.00    0.70
   0   3   2    1.20    0.70
   0   3   2    1.00    0.50
   0  -3  -2    1.10    0.50
   1   3  -2 1047.00   76.59
  -1   3   2 1123.69   76.49
   1  -3   2 1015.20   76.29
   1   3  -2 1008.70   76.49
  -1  -3  -2 1050.99   76.59
  -1   3  -2  955.80   76.29
   1   3   2 1056.89   76.59
   1   3   2 1018.40   76.59
   1  -3  -2 1093.09   76.49
   2  -3   2 2301.47  181.48
   2   3  -2 2630.64  182.08
  -2  -3  -2 2579.24  181.98
  -2   3   2 2415.66  181.98
   2   3   2 2434.16  181.98
   2  -3  -2 2309.77  183.68
   2  -3  -2 2729.13  181.68
   2   3   2 2654.93  181.98
  -2   3  -2 2285.07  181.48
   3   3  -2    7.40    1.70
  -3  -3  -2    6.00    1.30
  -3  -3  -2    6.20    2.10
   3   3  -2   10.40    3.30
  -3   3  -2    5.60    1.10
   3  -3  -2    8.80    2.40
   3   3   2    8.20    1.70
   3  -3  -2    7.00    1.30
   3   3   2    6.60    1.50
   4  -3   2 2195.08  152.38
   4   3  -2 1897.61  153.08
   4   3  -2 2195.38  155.08
   4   3   2 1988.00  153.08
   4  -3  -2 2128.59  152.58
  -4   3  -2 2213.18  154.78
  -4   3  -2 2145.89  152.48
   4  -3  -2 2092.59  154.18
   4   3   2 1871.01  152.88
   5   3  -2   43.50    4.80
   5  -3   2   44.70    4.00
  -5  -3  -2   38.10    5.50
   5   3   2   36.00    4.30
   5  -3  -2   50.39    4.20
  -5   3  -2   42.00    5.10
   6  -3   2   55.49    4.80
   6  -3  -2   53.29    4.60
   6   3   2   40.70    5.60
   7  -3   2   62.39    5.40
   7   3  -2   56.89    6.20
   7  -3   2   54.89    5.10
   7   3   2   52.99    5.80
   7  -3  -2   48.10    5.30
   7   3   2   71.79    6.70
   7  -3  -2   65.09    5.30
   8  -3   2  759.52   57.39
   8   3  -2  772.32   58.49
   8  -3   2  773.02   56.99
   8   3  -2  843.82   58.79
   8  -3  -2  714.43   57.09
   8   3   2  788.82   58.29
   8  -3  -2  736.53   57.59
   8   3   2  770.22   58.59
   0   4  -2 1832.52  137.89
   0  -4  -2 1917.41  138.09
   0  -4  -2 1752.52  140.99
   0   4   2 1756.02  137.89
   0   4  -2 1933.11  138.09
   0   4   2 2093.79  138.09
  -1  -4  -2   87.69   10.80
  -1   4   2   92.19    7.90
  -1  -4  -2  108.39    8.50
   1   4  -2  111.59    8.50
   1   4  -2  106.39    8.40
   1  -4  -2  118.59    8.30
   1   4   2  117.09    8.50
   1  -4  -2   90.79   10.50
  -1   4  -2  102.09    8.10
  -1   4  -2  114.69    8.00
   1   4   2   92.69    8.40
   2   4  -2  687.33   57.19
  -2  -4  -2  734.83   57.29
  -2  -4  -2  690.13   54.19
   2  -4   2  728.33   53.69
  -2   4   2  764.52   53.89
   2   4  -2  753.12   54.39
   2  -4  -2  742.53   56.89
  -2   4  -2  695.53   53.59
   2   4   2  759.22   54.29
   2  -4  -2  748.63   53.79
   2   4   2  720.63   54.19
   3   4  -2  154.78   12.90
  -3  -4  -2  140.09   15.00
   3   4  -2  166.08   15.50
  -3   4  -2  155.18   15.00
   3   4   2  158.48   12.70
   3   4   2  159.18   12.90
  -3   4  -2  156.48   12.10
   3  -4  -2  174.68   12.20
   3  -4  -2  156.88   14.80
  -4  -4  -2  620.54   53.79
   4   4  -2  709.13   54.09
   4  -4   2  700.13   50.39
   4   4  -2  756.32   51.59
   4   4   2  740.83   51.39
   4  -4  -2  638.84   53.29
  -4   4  -2  669.23   50.59
   4   4   2  640.64   51.39
  -4   4  -2  671.53   53.89
   5  -4   2   12.70    1.60
  -5  -4  -2   10.20    3.80
   5   4  -2   10.20    2.40
  -5   4  -2   14.50    3.80
   5   4   2   10.30    2.30
   5  -4  -2   13.40    1.70
   5   4   2   12.00    2.50
   6   4  -2 1363.76  103.69
   6  -4   2 1418.36  102.49
   6   4   2 1319.57  103.49
   6   4   2 1472.35  103.89
   7  -4   2   68.79    6.10
   7   4  -2   72.99    7.30
   7   4   2   88.29    7.50
   7   4   2   75.89    7.60
   7  -4  -2   61.19    6.20
   8   4  -2   17.00    4.00
   8  -4  -2   14.30    2.70
   8   4   2   18.80    3.60
   0   5  -2    0.30    0.70
   0   5   2    1.00    0.70
   0   5  -2   -1.00    2.00
   0  -5  -2    0.70    0.80
   0   5  -2    2.10    0.90
   0  -5  -2    2.00    2.10
   0   5   2    1.10    0.80
   1   5  -2   15.70    1.90
   1   5  -2   14.90    2.20
   1   5  -2    8.90    3.90
  -1  -5  -2   10.70    2.30
  -1   5  -2   10.50    4.10
   1  -5  -2   14.40    1.70
   1  -5  -2   10.30    3.90
  -1   5  -2   12.70    1.70
  -1   5  -2   16.90    1.60
   1   5   2   15.00    1.80
   1   5   2    8.90    1.90
   2   5  -2 1772.42  123.19
  -2   5  -2 1595.04  122.39
   2  -5  -2 1656.63  126.49
   2   5   2 1634.64  123.09
   2   5   2 1700.43  123.09
   3   5  -2    6.50    1.70
   3   5  -2    9.40    3.80
  -3   5   2   13.00    2.00
   3   5   2    7.20    1.90
  -3   5  -2   10.40    3.50
   3  -5  -2   14.70    4.20
   3  -5  -2    9.00    1.50
   3   5   2    7.20    1.70
  -3   5  -2   10.80    1.40
  -4  -5  -2 1049.40   79.49
   4  -5   2 1030.80   74.59
   4   5  -2  888.71   75.59
   4   5  -2 1136.99   79.69
   4  -5  -2 1001.40   74.79
   4   5   2  890.61   75.49
   4   5   2 1019.70   75.89
  -4   5  -2 1077.19   78.79
  -4   5  -2 1086.19   74.79
   5   5  -2    1.50    1.20
   5  -5   2    4.20    0.90
  -5  -5  -2    8.60    3.40
  -5   5  -2    4.70    2.80
   5   5   2    9.30    2.60
   5  -5  -2    3.80    1.10
   5   5   2    3.20    1.70
   6   5  -2   58.89    7.70
   6   5   2   67.79    7.00
   6  -5  -2   71.49    5.90
   7  -5   2    0.90    0.90
   7   5  -2    1.00    1.40
   7   5   2    1.60    1.80
   7  -5  -2    0.50    0.90
   7   5   2    0.20    1.20
   8   5  -2  594.74   44.10
   8   5  -2  573.54   44.10
   8   5   2  568.04   44.10
   8  -5  -2  518.85   42.20
   8   5   2  571.64   43.70
   0   6   2 3519.95  245.48
   0   6  -2 3190.28  250.17
   0   6   2 3445.16  245.28
   0   6  -2 3446.66  245.28
   0  -6  -2 3178.28  245.38
   0  -6  -2 3327.17  250.17
   0   6  -2 3327.67  245.28
  -1  -6  -2   29.80    6.90
  -1   6   2   25.20    2.30
   1   6  -2   18.10    4.70
  -1   6   2   27.10    2.80
   1   6  -2   21.60    2.70
   1   6  -2   20.50    2.90
  -1   6  -2   24.70    2.50
   1   6   2   21.00    2.70
   1   6   2   24.60    2.90
  -1   6  -2   27.00    6.30
   1  -6  -2   25.50    2.60
  -1   6  -2   24.30    2.40
  -2  -6  -2  200.68   19.40
   2   6  -2  152.28   18.30
  -2   6   2  199.18   14.50
   2   6  -2  175.28   14.90
   2   6   2  172.48   14.80
   2  -6  -2  197.88   18.90
  -2   6  -2  181.58   14.10
  -2   6  -2  200.48   19.10
   2  -6  -2  190.18   14.40
   2   6   2  198.38   15.00
  -3   6   2   62.29    6.10
   3  -6   2   81.99    6.00
   3   6  -2   62.99    6.60
   3   6  -2   81.19   10.40
  -3   6  -2   83.39    5.90
   3  -6  -2   88.49   10.30
   3   6   2   86.09    7.10
   3   6   2   59.19    7.30
   3  -6  -2   62.99    5.90
   4   6  -2  440.06   33.40
   4   6  -2  428.96   37.40
  -4  -6  -2  398.46   37.20
   4   6   2  455.95   33.40
  -4   6  -2  436.56   36.80
   4   6   2  425.46   33.40
  -5  -6  -2    4.00    2.90
   5   6  -2    4.10    1.50
   5   6   2    5.00    2.00
   5   6   2    6.10    2.00
   5  -6  -2    5.00    1.30
  -5   6  -2    5.10    2.80
   6   6  -2  534.75   40.40
   6  -6  -2  459.65   38.60
   6   6   2  545.75   40.40
   6   6   2  554.14   40.30
   7   6  -2    1.80    1.70
   7   6   2   -1.20    1.50
   7   6   2   -0.30    1.50
   7  -6  -2   -0.30    0.90
   8   6  -2   38.90    6.20
   8   6   2   45.00    5.90
   0   7   2    1.30    1.10
   0  -7  -2    0.00    3.00
   0   7   2    1.40    1.00
   0   7  -2    2.20    1.00
   0   7  -2   -0.30    3.20
   0   7  -2    1.00    1.00
   1   7  -2   35.60    4.00
  -1   7   2   38.50    4.00
  -1  -7  -2   39.00    8.70
  -1   7   2   42.50    3.60
   1   7  -2   41.10    9.00
  -1   7  -2   40.00    8.10
  -1   7  -2   44.50    3.70
   1   7   2   37.70    4.00
   1  -7  -2   39.60    3.80
   1   7   2   32.60    4.00
   1  -7  -2   37.10    8.10
  -1   7  -2   41.60    3.70
   2   7  -2  978.80   76.79
  -2   7   2 1093.19   76.39
  -2  -7  -2 1067.99   82.99
  -2   7  -2 1088.39   83.99
   2  -7  -2 1045.40   76.29
   2   7   2  948.41   76.79
   2   7   2  956.20   76.89
  -2   7  -2 1045.10   75.99
   2  -7  -2 1154.08   88.09
   3   7  -2    9.00    4.60
   3   7  -2    8.30    2.00
  -3   7   2   13.80    2.10
  -3  -7  -2    7.50    4.40
   3   7   2    9.40    2.20
   3  -7  -2    9.80    4.60
   3   7   2    6.20    1.80
  -3   7  -2    8.70    1.40
  -3   7  -2   10.00    4.70
   3  -7  -2   11.40    1.70
   4   7  -2  641.54   50.29
  -4  -7  -2  567.64   49.90
   4   7  -2  548.45   44.80
  -4   7  -2  626.04   49.40
   4   7   2  624.04   45.00
   4  -7  -2  583.14   44.70
   4   7   2  546.95   44.70
   5   7  -2    5.50    2.00
   5   7   2    6.00    2.10
   5  -7  -2    1.90    1.30
   5   7   2    5.30    1.80
  -5   7  -2    6.50    3.70
   6   7  -2   27.50    4.70
   6   7   2   28.70    5.40
   7   7  -2   23.00    4.60
   7   7   2   27.70    5.10
   7   7   2   25.90    4.60
   0   8   2 1010.60   79.49
   0   8   2 1113.69   79.39
   0   8  -2 1071.99   79.49
   0   8  -2 1120.69   86.49
   0  -8  -2 1057.69   86.09
  -1   8   2    4.60    1.10
   1   8  -2   -1.80    2.60
  -1   8   2    2.20    1.20
   1   8  -2    4.80    1.50
  -1   8   2    2.00    1.00
  -1  -8  -2    4.70    4.20
  -1   8  -2    0.60    1.00
   1   8   2    1.40    1.40
  -1   8  -2    3.60    1.30
   1   8   2    4.90    1.40
  -1   8  -2    3.00    4.00
   1  -8  -2    3.20    2.70
   2   8  -2  160.48   14.10
  -2   8   2  170.48   13.70
   2   8  -2  175.78   19.80
  -2  -8  -2  217.08   21.20
   2   8   2  157.28   14.10
   2  -8  -2  150.08   13.60
  -2   8  -2  184.48   13.30
   2   8   2  191.18   14.90
   2  -8  -2  203.78   20.60
  -3  -8  -2  105.29   14.20
   3   8  -2   83.79    8.10
  -3   8   2   81.09    7.40
   3   8  -2   82.19   12.70
   3   8   2  103.89    8.60
  -3   8  -2  104.09   13.30
   3   8   2   93.79    8.30
   3  -8  -2   78.19    7.30
   4   8  -2  287.77   20.90
   4   8  -2  215.08   24.70
   4  -8  -2  245.48   19.30
   4   8   2  275.57   20.70
  -4   8  -2  231.78   24.80
   4   8   2  243.78   20.70
   5   8  -2    7.10    2.00
   5   8   2   10.20    2.70
   5   8   2    5.30    1.70
   5  -8  -2    2.90    1.20
   6   8  -2  458.55   38.10
   6   8   2  465.05   38.00
   6   8   2  535.65   38.40
   7   8  -2   -0.60    1.40
   7   8   2    1.80    2.10
   7   8   2    1.20    1.70
   0   9   2    0.10    1.20
   0   9  -2   -0.70    1.30
   0  -9  -2   -1.80    3.00
   0   9   2    2.50    2.60
   0   9  -2    0.70    3.60
  -1  -9  -2   15.40    6.00
   1   9  -2   14.20    2.90
  -1   9   2   25.30    2.60
   1   9  -2   17.20    6.60
  -1   9   2   21.70    3.20
  -1   9   2   21.50    2.60
  -1   9  -2   19.30    6.60
   1  -9  -2   17.90    6.30
  -1   9  -2   21.00    2.70
   1   9   2   16.80    3.10
   1   9   2   25.40    3.20
  -2   9   2  466.75   37.10
   2   9  -2  508.25   44.90
  -2  -9  -2  516.95   45.30
   2   9  -2  471.45   37.70
  -2   9  -2  473.95   36.60
   2   9   2  476.95   37.70
   2   9   2  528.15   37.90
  -2   9  -2  499.45   44.40
  -2   9  -2  511.95   36.70
  -3   9   2    6.00    1.60
   3   9  -2   -5.90    3.30
   3   9  -2    2.00    1.50
  -3  -9  -2    4.00    4.90
   3   9   2    5.80    2.20
  -3   9  -2    2.30    4.50
   3   9   2    4.10    1.70
   4   9  -2  371.66   30.00
   4   9   2  370.26   30.00
  -4   9  -2  410.76   36.60
   5   9  -2    9.30    4.30
   5   9   2    0.10    3.20
   6   9  -2   17.90    4.00
   6   9   2   19.40    4.00
   0  10  -2  527.95   43.20
   0  10  -2  654.03   53.29
   0  10   2  615.34   43.10
   0  10   2  529.25   43.20
   1  10  -2    4.30    5.60
  -1  10   2    3.30    1.80
  -1  10   2    6.60    1.50
  -1  10   2    2.80    1.30
   1  10  -2    6.10    1.90
  -1  10  -2    2.70    1.40
  -1  10  -2    4.40    4.70
   1  10   2    3.00    1.80
   1  10   2    6.40    1.90
   2  10  -2   57.09    6.10
  -2  10   2   53.49    5.50
   2  10  -2   68.39   14.10
   2  10   2   51.69    6.10
   2  10   2   64.99    6.30
  -2  10  -2   51.99   12.60
  -2  10  -2   54.59    5.20
  -3  10   2    1.40    1.50
   3  10  -2   -0.40    1.20
   3  10   2    1.90    1.60
  -3  10  -2    1.10    6.90
   3  10   2    0.90    1.60
   4  10  -2  181.68   15.00
   4  10   2  166.38   15.20
   4  10   2  160.28   14.90
   5  10  -2    7.50    2.70
   5  10   2    5.60    2.60
   5  10   2   10.10    3.00
   0  11  -2   -3.10    5.10
   0  11  -2   -0.80    1.60
   0  11   2    1.90    1.70
   1  11  -2    1.30    1.60
  -1  11   2    0.50    1.80
  -1  11   2    3.50    1.50
   1  11  -2    6.20   10.40
  -1  11  -2    2.30    1.80
   1  11   2    2.80    1.60
   1  11   2   -0.10    1.60
  -1  11  -2    1.90    4.90
  -2  11   2  197.78   17.20
   2  11  -2  223.08   17.90
  -2  11  -2  201.28   16.80
   2  11   2  235.88   18.10
  -2  11  -2  239.78   26.40
   2  11   2  218.38   17.90
   3  11  -2    2.10    1.60
  -3  11   2    4.60    1.80
   3  11   2    4.80    2.30
   3  11   2    1.20    1.80
   4  11  -2  186.88   16.40
   4  11   2  187.38   16.30
   5  11  -2   -0.40    1.60
   5  11   2    2.20    2.10
   0  12   2  222.78   17.10
   0  12   2  201.38   17.40
   0  12  -2  204.58   17.10
  -1  12   2    3.20    1.80
   1  12  -2    1.90    2.00
  -1  12   2    2.30    2.00
   1  12   2    4.30    2.20
   1  12   2    2.80    1.80
  -1  12  -2    2.70    1.90
  -2  12   2   51.99    5.50
   2  12  -2   40.70    5.70
  -2  12  -2   42.70    5.00
   2  12   2   61.29    6.30
   2  12   2   44.50    8.30
  -3  12   2    6.70    2.40
   3  12  -2    8.70    2.70
   3  12   2    2.90    2.40
   3  12   2    7.10    2.40
   0  13   2   -4.00    2.20
   0  13  -2   -1.60    2.00
   0  13   2    0.20    2.20
  -1  13   2    0.50    2.80
   1  13  -2   -1.40    2.10
  -1  13   2   -1.60    2.20
  -1  13  -2    2.90    2.10
   1  13   2   -1.40    2.20
   1  13   2    1.80    1.90
   0   0   3    0.90    0.50
   0   0   3    1.00    0.50
  -1   0   3   10.60    1.40
   1   0  -3   14.80    1.60
   1   0   3   11.40    1.20
   1   0   3    7.80    1.30
  -1   0  -3   10.40    1.20
  -2   0  -3 4800.42  374.96
  -2   0  -3 5461.55  374.86
   3   0  -3  138.09   10.00
   3   0   3  117.79   10.10
   4   0   3 1344.27   99.69
  -4   0  -3 1354.76   99.49
   4   0   3 1359.06   99.49
   5   0   3    9.60    2.00
   5   0   3   13.40    1.80
   6   0   3  106.69    8.60
   6   0  -3   90.49    9.80
   7   0   3   14.50    2.90
   7   0  -3   21.90    3.60
   7   0   3   17.90    2.50
   8   0   3  631.24   47.40
   8   0  -3  615.64   47.60
   8   0  -3  658.43   48.00
   8   0   3  604.94   47.60
   9   0   3   -1.60    1.40
   9   0  -3   -1.70    1.50
   0   1  -3 6655.73  486.05
   1   1  -3  644.14   48.70
  -1   1   3  659.73   48.50
  -1  -1  -3  660.33   48.70
  -1   1   3  723.83   48.90
   1  -1   3  644.04   48.60
   1  -1   3  696.53   48.60
  -1  -1  -3  601.24   48.70
   1   1   3  683.43   48.80
   1  -1  -3  628.64   48.50
  -1   1  -3  660.83   48.50
  -1   1  -3  624.74   48.70
   1   1   3  695.13   48.80
  -1  -1   3  675.03   48.70
   1  -1  -3  667.03   48.80
  -2  -1  -3  327.07   26.30
  -2  -1  -3  353.66   26.20
   2  -1   3  384.46   25.90
   2  -1  -3  353.06   25.90
  -2   1  -3  328.37   26.10
  -2   1  -3  354.16   25.90
   3  -1   3  224.98   15.70
  -3  -1  -3  223.38   16.10
   3  -1   3  194.58   15.90
  -3  -1  -3  188.88   16.10
  -3   1  -3  191.78   16.00
   3   1   3  200.08   16.20
   3  -1  -3  207.68   15.70
   3   1   3  228.78   16.00
  -3   1  -3  218.08   15.70
   4  -1   3 1210.58  100.19
   4  -1   3 1491.65   99.99
  -4  -1  -3 1480.05  100.49
   4   1   3 1484.45  100.39
   4  -1  -3 1340.37   99.99
   4   1   3 1164.28  100.39
   5   1  -3   10.40    2.20
   5  -1   3   10.60    1.40
   5  -1   3    9.40    1.90
   5   1   3   12.30    2.00
   5   1   3    7.80    1.90
   6   1  -3 1521.15  122.19
   6  -1   3 1627.44  121.79
   6  -1   3 1786.22  121.59
  -6  -1  -3 1769.72  122.39
   6   1   3 1681.63  122.19
   6   1   3 1524.75  121.79
   7  -1   3    2.30    1.40
   7   1  -3    1.90    1.30
   7  -1   3    4.50    1.10
   7   1   3    0.40    1.00
   7   1   3    1.50    1.50
   7  -1  -3    2.50    1.40
   8  -1   3   59.49    6.20
   8  -1  -3   59.79    6.00
   0  -2   3    2.00    0.70
   0  -2  -3    0.70    0.60
   0   2  -3    0.40    0.50
   0   2   3    0.60    0.60
   0  -2  -3    1.00    0.50
  -1   2   3   40.80    3.10
  -1  -2  -3   44.50    3.60
   1  -2   3   37.70    3.30
  -1   2   3   41.40    3.80
  -1  -2  -3   41.90    3.50
   1  -2  -3   38.40    3.20
  -1   2  -3   37.50    3.30
   1   2   3   39.20    3.50
  -1  -2   3   39.00    3.60
   1  -2  -3   35.80    3.40
   1   2   3   41.00    3.50
   2  -2   3 2150.08  164.88
  -2  -2  -3 2161.38  165.28
  -2  -2  -3 2400.36  165.18
   2   2  -3 2329.27  165.18
  -2   2  -3 2043.80  164.88
   2  -2  -3 2091.89  164.58
   2   2   3 2478.65  165.18
   2   2   3 2142.59  165.18
   2  -2  -3 2491.45  165.08
  -3  -2  -3   33.10    3.20
   3  -2   3   31.30    3.00
   3  -2  -3   31.30    2.70
  -3   2  -3   34.90    3.10
   3   2   3   31.80    3.20
   3   2   3   37.20    3.50
   3  -2  -3   31.60    3.10
   4  -2   3 2151.88  155.28
  -4  -2  -3 2115.99  156.08
   4  -2   3 2201.68  155.68
   4   2   3 2044.40  156.18
   4  -2  -3 2090.99  155.38
  -4   2  -3 2119.19  155.98
   4  -2  -3 2219.68  155.98
   4   2   3 2037.30  155.88
   5  -2   3   11.80    2.00
  -5  -2  -3   10.70    2.90
   5  -2   3   11.10    1.50
   5   2  -3    9.00    2.10
   5   2  -3    9.50    2.40
   5   2   3    5.40    1.80
   5  -2  -3   10.20    1.40
   5   2   3    7.80    1.70
   6  -2   3   51.69    4.60
  -6  -2  -3   36.80    5.60
   6  -2  -3   49.70    4.50
   6   2   3   42.30    5.20
   7   2  -3   -0.20    1.10
   7  -2   3   -0.10    1.00
   7  -2   3    0.30    0.80
   7   2   3    2.00    1.40
   7   2   3    1.00    1.10
   7  -2  -3    0.40    0.90
   7  -2  -3    0.30    0.90
   8   2  -3  885.41   67.39
   8   2  -3  920.01   67.49
   8  -2   3  883.71   66.19
   8  -2   3  883.21   66.49
   8   2   3  874.81   67.29
   8  -2  -3  814.52   66.39
   8  -2  -3  936.71   66.99
   8   2   3  936.31   67.09
   0   3  -3 9100.49  695.73
   0   3   3 8450.65  580.74
   0  -3  -3 7093.39  578.54
   0  -3  -3 8296.57  689.73
   0  -3   3 6396.86  658.83
   0   3   3 6226.18  661.33
  -1   3   3   91.19    6.60
   1  -3   3   80.49    6.40
   1   3  -3   79.09    6.60
  -1   3   3   77.49    6.20
  -1  -3  -3   84.39    6.70
   1   3   3   84.69    6.70
   1  -3  -3   81.09    6.20
   1   3   3   77.29    6.60
  -1   3  -3   75.09    6.40
   1  -3  -3   84.29    6.50
   2   3  -3  479.15   37.00
  -2   3   3  537.55   37.00
  -2  -3  -3  476.15   37.10
   2  -3   3  485.65   36.60
   2   3   3  510.85   37.20
  -2   3  -3  471.75   36.70
   2  -3  -3  518.25   36.90
   2   3   3  492.15   37.00
  -3  -3  -3  234.38   17.50
   3  -3   3  225.18   17.00
   3   3  -3  233.38   17.70
   3   3   3  214.28   17.40
  -3   3  -3  220.98   17.10
   3  -3  -3  221.28   17.20
   3   3   3  233.08   17.70
   4   3  -3  862.91   69.09
   4   3  -3  892.51   67.09
   4  -3   3  940.51   66.29
   4  -3  -3  951.80   65.89
   4   3   3  960.90   66.99
   4  -3  -3  829.12   68.09
  -4   3  -3  845.62   66.39
  -5  -3  -3   36.80    6.40
   5   3  -3   35.80    6.00
   5  -3   3   34.20    3.20
   5   3   3   30.40    3.90
  -5   3  -3   30.50    3.30
   5   3   3   26.80    3.50
  -6  -3  -3  826.72   63.79
   6   3  -3  840.12   62.29
   6  -3   3  810.02   61.09
  -6   3  -3  789.22   62.29
   6  -3  -3  895.11   60.99
   6  -3  -3  813.92   60.79
   6   3   3  868.41   62.29
   6   3   3  752.72   61.69
   7   3  -3   62.29    6.30
   7  -3   3   53.39    5.30
   7   3   3   62.89    6.00
   7   3   3   59.19    6.20
   7  -3  -3   53.79    4.90
   7  -3  -3   52.99    5.00
   8   3  -3   45.60    5.60
   8  -3  -3   45.80    4.90
   8   3   3   42.30    5.30
   0   4   3    1.20    0.80
   0   4  -3    1.30    0.70
   0  -4   3    2.30    1.10
   0   4  -3    0.20    0.80
   0   4   3    1.30    0.70
  -1   4   3  747.03   56.89
   1   4  -3  793.52   57.49
  -1  -4  -3  751.22   57.39
   1  -4   3  770.42   57.09
  -1   4   3  824.22   57.29
   1   4   3  819.12   57.49
  -1   4  -3  729.83   57.09
   1   4   3  752.52   57.39
  -1   4  -3  781.02   56.99
   1  -4  -3  786.62   57.29
  -2  -4  -3 2507.05  183.18
   2   4  -3 2518.75  182.98
   2   4  -3 2570.44  183.18
   2  -4   3 2461.35  182.58
  -2   4  -3 2323.17  182.58
   2   4   3 2392.26  183.08
   2   4   3 2554.74  183.08
   2  -4  -3 2655.43  182.78
   2  -4  -3 2478.25  185.88
   3  -4   3    4.60    1.00
   3   4  -3    2.60    1.10
  -3  -4  -3    5.40    2.40
   3   4  -3    2.30    2.00
   3  -4  -3    4.40    2.30
  -3   4  -3    4.90    1.00
   3   4   3    4.20    1.30
   3  -4  -3    7.30    1.20
   3   4   3    3.20    1.10
   4   4  -3 1055.49   74.49
   4  -4   3  942.91   70.29
   4   4  -3  838.92   71.09
  -4  -4  -3  993.90   74.39
  -4   4  -3 1007.90   70.49
   4   4   3  895.01   71.19
   4  -4  -3  947.51   70.49
   4  -4  -3  985.70   73.39
   5  -4   3   41.00    3.70
   5   4  -3   51.59    7.90
  -5  -4  -3   37.40    7.10
   5   4  -3   38.60    4.50
   5  -4  -3   36.60    3.80
  -5   4  -3   47.30    6.20
  -5   4  -3   43.40    4.00
   5   4   3   36.40    4.30
   5   4   3   37.30    4.50
  -6  -4  -3   23.10    5.30
   6  -4   3   25.80    2.70
  -6   4  -3   17.40    4.30
   7   4  -3   49.80    5.90
   7  -4   3   52.39    4.90
   7   4   3   54.49    5.80
   8  -4   3  731.13   50.99
   8   4  -3  678.43   51.29
   8   4   3  658.13   50.79
   8   4   3  649.24   51.19
   8  -4  -3  612.34   49.99
   0   5   3 3683.53  246.98
   0   5  -3 3447.35  246.78
   0   5   3 3174.28  246.68
   0  -5  -3 3406.06  246.98
   0  -5  -3 3132.09  250.67
   1  -5   3   12.00    1.80
  -1  -5  -3   14.30    1.90
  -1   5   3   12.60    1.50
  -1  -5  -3   17.20    5.50
  -1   5   3   13.60    2.00
   1   5  -3   12.30    2.10
   1   5  -3   10.20    1.90
   1  -5  -3   14.20    4.30
   1   5   3   15.30    1.90
   1   5   3   13.60    2.10
  -1   5  -3   11.30    1.70
   1  -5  -3    8.60    1.90
  -1   5  -3   10.90    1.40
   2  -5   3  532.85   37.90
  -2   5   3  524.85   38.20
  -2  -5  -3  568.14   43.20
   2   5  -3  470.85   42.30
   2   5  -3  480.05   38.50
   2   5   3  515.85   38.50
  -2   5  -3  506.95   37.90
   2  -5  -3  499.75   38.20
   3   5  -3   13.70    4.70
  -3   5   3   18.10    2.40
   3   5  -3   12.90    2.40
   3  -5   3   13.60    1.70
  -3   5  -3   12.20    1.70
   3   5   3   12.60    2.30
   3  -5  -3   12.90    4.40
   3  -5  -3   16.80    2.00
   3   5   3   12.10    2.40
  -3   5  -3   14.00    4.30
   4   5  -3  512.85   37.00
   4   5  -3  503.15   40.50
   4  -5   3  483.75   35.60
  -4  -5  -3  463.05   40.20
   4   5   3  462.05   36.70
  -4   5  -3  501.75   40.10
   4  -5  -3  443.26   39.10
   4   5   3  474.55   36.60
  -4   5  -3  481.15   35.80
  -5  -5  -3   11.90    4.70
   5   5  -3   12.00    2.60
   5   5  -3   11.00    4.40
   5  -5   3   12.80    1.70
   5   5   3    9.70    2.30
   5   5   3   12.00    2.50
   5  -5  -3   14.10    2.00
  -5   5  -3   12.30    3.80
   6  -5   3  821.02   65.29
  -6  -5  -3  919.61   70.49
   6   5  -3  894.31   66.99
  -6   5  -3  848.02   68.49
   6   5   3  870.91   66.59
   6   5   3  977.90   67.19
   7   5  -3    8.20    2.20
   7  -5   3    5.30    1.30
   7   5   3    5.80    2.30
   7   5   3    8.40    2.10
   8   5  -3   26.80    4.80
   8   5   3   29.40    4.70
   8  -5  -3   24.00    3.70
   0   6   3   -0.80    0.70
   0   6  -3    1.40    0.70
   0  -6  -3    1.00    0.70
   0   6  -3    0.90    0.80
   0   6   3   -0.30    0.90
   0   6  -3   -4.50    2.20
   0  -6  -3    3.30    2.70
  -1  -6  -3   20.10    5.60
  -1   6   3   16.40    2.30
   1   6  -3   11.70    4.50
   1   6  -3   16.30    2.30
  -1   6  -3   20.10    6.70
   1   6   3   16.30    2.50
   1  -6  -3   14.70    2.30
  -1   6  -3   18.50    2.10
   1   6   3   18.50    2.30
   1  -6  -3   15.70    4.60
  -1   6  -3   17.70    1.90
   2   6  -3 1466.45  113.79
  -2   6   3 1638.94  113.49
  -2  -6  -3 1578.14  118.79
   2  -6   3 1667.03  113.19
   2   6   3 1462.85  113.69
  -2   6  -3 1607.84  118.99
   2  -6  -3 1615.24  113.39
   2   6   3 1406.46  113.69
  -2   6  -3 1450.65  112.99
   2  -6  -3 1535.25  118.19
   3  -6   3   25.30    2.50
   3   6  -3   23.90    6.30
  -3   6   3   27.80    2.90
   3  -6  -3   15.50    4.80
   3   6   3   17.80    3.10
   3  -6  -3   22.20    2.50
  -3   6  -3   20.00    2.30
   4   6  -3  772.02   57.79
   4   6  -3  622.64   52.69
  -4  -6  -3  703.03   57.39
   4  -6   3  694.33   51.59
   4   6   3  736.03   52.89
  -4   6  -3  680.73   51.69
  -4   6  -3  802.52   57.49
   4  -6  -3  748.63   56.79
   4   6   3  641.24   52.59
   4  -6  -3  664.13   51.79
  -5  -6  -3   -2.00    3.20
   5   6  -3    1.50    3.80
   5   6  -3    2.50    1.40
   5  -6   3    1.80    0.90
   5   6   3    2.10    1.30
  -5   6  -3    3.00    2.60
  -5   6  -3    2.50    1.00
   5   6   3    3.00    1.40
   5  -6  -3    0.90    0.90
   6   6  -3   34.10    4.90
   6   6   3   22.80    4.40
  -6   6  -3   15.10    5.00
   7   6  -3   27.90    4.60
   7   6   3   29.60    6.10
   7   6   3   27.40    4.80
   0   7   3 1177.68   87.49
   0  -7  -3 1167.38   93.19
   0   7  -3 1208.88   93.89
   0   7  -3 1238.08   87.59
   0   7   3 1138.99   87.69
   1   7  -3   38.20    4.10
  -1   7   3   43.40    3.70
  -1   7   3   37.70    4.00
  -1  -7  -3   56.49   11.40
   1   7  -3   29.40    7.60
  -1   7  -3   45.70    9.70
   1   7   3   39.30    4.10
  -1   7  -3   46.20    3.80
  -1   7  -3   40.10    3.90
   1   7   3   34.30    4.10
   1  -7  -3   58.49   10.40
   2   7  -3  192.48   17.10
  -2   7   3  210.38   16.80
   2  -7  -3  254.07   22.80
  -2   7  -3  237.58   29.00
  -2   7  -3  238.78   16.50
   2   7   3  221.48   17.20
   2  -7  -3  207.38   16.70
   2   7   3  197.58   17.10
  -3  -7  -3   43.80    8.90
   3   7  -3   55.79    5.50
  -3   7   3   47.50    4.90
   3   7  -3   46.10    8.60
   3  -7   3   57.09    4.70
   3  -7  -3   47.10    4.60
   3  -7  -3   61.69   11.10
  -3   7  -3   71.29    9.80
  -3   7  -3   49.90    4.50
   3   7   3   45.70    5.20
   3   7   3   58.69    5.60
   4   7  -3  430.36   32.30
   4  -7   3  438.26   30.90
   4   7  -3  403.96   37.10
   4   7   3  423.96   32.20
  -4   7  -3  373.86   36.10
   4   7   3  440.66   32.20
   4  -7  -3  393.16   31.10
   4  -7  -3  373.16   36.20
   5   7  -3   14.70    5.50
  -5  -7  -3   12.90    5.70
   5   7  -3    6.10    2.00
   5  -7  -3    8.00    1.80
   5   7   3    8.60    2.30
  -5   7  -3   10.80    5.20
   5   7   3    8.90    2.50
   6   7  -3  666.53   51.19
  -6   7  -3  648.34   54.19
   6   7   3  643.64   50.79
   6   7   3  696.83   51.29
   7   7  -3    0.80    1.60
   7   7   3    2.20    1.90
   7   7   3    3.50    2.00
   0   8   3   -1.20    1.00
   0   8   3   -0.50    0.90
   0   8  -3   -2.90    3.10
   0   8  -3    1.20    1.10
   0  -8  -3   -3.00    2.40
  -1   8   3   41.60    4.70
   1   8  -3   41.10    4.70
  -1   8   3   55.19    4.40
  -1  -8  -3   69.29   13.90
   1   8  -3   61.09   12.40
  -1   8  -3   47.50    4.40
   1   8   3   41.20    4.80
  -1   8  -3   41.40    9.40
   1   8   3   53.99    4.90
   1  -8  -3   49.30   11.00
   2   8  -3  639.64   50.39
  -2  -8  -3  728.83   57.49
   2   8  -3  644.04   56.39
  -2   8   3  667.43   49.99
   2  -8  -3  716.53   56.99
   2   8   3  666.13   50.39
  -2   8  -3  701.83   56.89
  -2   8  -3  642.84   49.50
   2   8   3  654.43   50.39
   3   8  -3    5.30    4.90
  -3   8   3   15.40    2.50
  -3  -8  -3    7.10    5.30
   3   8  -3    9.20    2.40
   3   8   3   13.50    2.60
   3   8   3   11.20    2.80
  -3   8  -3    5.40    4.60
   3  -8  -3    8.50    4.00
   4   8  -3  479.95   39.80
   4   8  -3  542.95   46.10
  -4   8  -3  530.55   45.30
   4   8   3  481.75   39.70
   4   8   3  564.24   40.10
   5   8  -3   16.70    3.60
  -5  -8  -3   23.50    7.30
   5   8   3   22.00    3.80
   5   8   3   19.30    4.10
  -5   8  -3   16.50    6.50
   6   8  -3   22.30    4.30
   6   8   3   21.70    4.20
   7   8  -3   -0.50    2.00
   7   8   3    0.60    1.80
   7   8   3   -1.30    1.60
   0   9   3  800.12   63.49
   0  -9  -3  880.11   71.29
   0   9   3  857.11   63.19
   0   9  -3  819.72   63.19
   0   9  -3  935.81   71.79
   1   9  -3    2.10    1.30
  -1  -9  -3    5.50    4.50
  -1   9   3    0.90    1.30
   1   9  -3    3.60    4.50
  -1   9   3    1.10    1.10
   1   9   3    2.90    1.30
  -1   9  -3    0.10    1.00
   1  -9  -3    2.60    3.70
  -1   9  -3    1.00    4.00
   1   9   3   -0.70    1.30
   2   9  -3  104.79   17.50
  -2  -9  -3  112.09   16.10
  -2   9   3   94.29    8.70
   2   9  -3  101.99    9.20
   2   9   3  105.69    9.30
  -2   9  -3   98.59    8.20
   2  -9  -3  119.59   15.70
  -2   9  -3  137.59   16.60
   2   9   3   94.79    9.20
  -3   9   3    0.10    1.30
   3   9  -3    1.60    1.30
   3   9  -3   -0.90    4.50
  -3  -9  -3   -4.60    3.40
  -3   9  -3    3.40    3.90
   3  -9  -3    2.20    3.60
   3   9   3   -1.10    1.40
   3   9   3    0.50    1.40
  -3   9  -3   -2.30    0.90
   4   9  -3  210.98   24.90
   4   9  -3  249.88   19.60
  -4  -9  -3  207.48   25.00
   4   9   3  243.08   19.50
  -4   9  -3  203.18   24.40
   4   9   3  248.08   19.40
   5   9  -3   12.80    3.80
   5   9   3    9.00    2.80
   6   9  -3  271.27   22.80
   6   9   3  279.37   22.80
   6   9   3  264.77   22.60
   0  10  -3   -2.00    1.40
   0  10   3   -0.10    1.40
   0  10  -3    0.40    5.30
   0 -10  -3    0.10    4.70
   0  10   3   -1.80    1.40
  -1  10   3    9.60    1.90
   1  10  -3    3.80    5.40
  -1  10   3    9.30    2.30
  -1 -10  -3    8.90    5.10
  -1  10   3    7.70    1.70
   1  10  -3   11.20    2.40
  -1  10  -3    3.40    5.50
   1  10   3    8.60    2.20
   1 -10  -3    7.60    5.50
  -1  10  -3    8.60    2.00
   1  10   3   10.60    2.60
   2  10  -3  302.57   24.20
  -2 -10  -3  356.96   33.40
   2  10  -3  346.77   33.10
  -2  10   3  269.87   23.50
  -2  10  -3  312.07   31.80
   2  10   3  307.87   24.10
   2  10   3  305.67   24.20
   2 -10  -3  322.07   32.00
  -2  10  -3  290.97   23.00
   3  10  -3   10.10    2.50
  -3 -10  -3    8.90    6.10
  -3  10   3    5.30    2.00
   3  10  -3    6.10    6.00
   3  10   3    6.80    2.50
   3  10   3    7.10    2.50
   4  10  -3  251.57   21.50
   4  10  -3  282.67   28.70
   4  10   3  260.77   23.00
  -4  10  -3  256.87   29.70
   5  10  -3    0.60    1.50
   5  10   3    2.00    1.90
   5  10   3   -1.90    1.40
   0 -11  -3  370.46   36.60
   0  11   3  329.27   26.70
   0  11  -3  356.46   36.20
   0  11  -3  332.47   26.40
  -1  11   3    4.00    1.50
  -1  11   3    1.40    1.50
   1  11  -3    3.80    1.90
  -1 -11  -3   -5.70    4.90
   1  11   3    5.10    2.00
  -1  11  -3    2.20    1.60
   1  11   3    2.70    1.60
  -1  11  -3   10.90    6.90
  -2  11   3   71.99    7.30
   2  11  -3   99.09   18.30
   2  11  -3   78.69    7.80
  -2  11  -3   77.79   15.80
  -2  11  -3   72.49    6.70
   2  11   3   89.69    8.00
   2  11   3   67.29    7.50
  -3  11   3   10.10    2.60
   3  11  -3    8.90    2.60
   3  11  -3   14.90    7.90
   3  11   3    7.30    3.30
  -3  11  -3   13.60    6.70
   3  11   3   10.40    2.90
   4  11  -3   81.19    7.90
  -4  11   3   53.19    7.00
   4  11   3   74.29    7.90
   4  11   3   71.19    7.70
   0  12   3   -0.20    1.90
   0  12  -3   11.50    7.60
   0  12   3   -2.30    1.60
   0  12  -3    0.50    2.00
  -1  12   3    2.10    2.00
   1  12  -3   -1.20    6.60
   1  12  -3    1.40    1.80
  -1  12   3   -0.10    1.60
   1  12   3    4.40    2.10
  -1  12  -3    2.80    1.90
  -1  12  -3   -6.80    5.80
   1  12   3    2.30    2.20
  -2  12   3  200.68   17.10
   2  12  -3  210.48   27.70
   2  12  -3  206.48   17.50
   2  12   3  185.68   17.50
   2  12   3  237.08   17.70
  -2  12  -3  211.88   25.90
  -3  12   3    1.90    1.90
   3  12  -3    4.50    2.40
   3  12   3    4.70    2.20
   3  12   3    3.40    2.20
   0  13   3  134.99   12.30
   0  13  -3  138.49   12.00
  -1  13   3    1.80    2.30
   1  13  -3    1.40    2.00
  -1  13  -3    0.50    2.10
   1  13   3   -0.30    2.20
   0   0   4  939.11   66.29
   0   0  -4  862.01   66.19
  -1   0   4  127.49    9.10
   1   0  -4  109.19    9.20
   1   0   4  119.89    9.10
  -1   0  -4  111.39    9.00
  -2   0   4  760.12   56.09
  -2   0  -4  697.93   56.19
   2   0   4  791.82   56.29
   2   0   4  817.62   56.19
   2   0  -4  759.82   56.09
  -2   0  -4  741.93   56.09
   3   0  -4 1127.69   82.79
  -3   0  -4 1131.29   82.79
  -3   0  -4 1066.49   83.09
   3   0   4 1175.58   82.79
   4   0   4 1678.43  116.59
   4   0  -4 1485.75  116.59
  -4   0  -4 1597.54  116.69
   5   0   4   96.79    7.90
  -5   0  -4   95.09    8.00
   5   0   4   92.39    8.10
   6   0   4 2207.78  164.48
   6   0   4 2269.47  164.88
   7   0  -4    9.70    2.40
   7   0   4    8.60    1.90
   7   0   4   10.50    2.40
   8   0   4   47.00    5.10
   8   0  -4   53.69    5.80
   0   1   4    0.80    0.60
   0  -1  -4    0.30    0.40
   0   1  -4    0.80    0.50
   0   1   4   -0.20    0.50
   0  -1  -4    0.40    0.60
   0   1  -4    0.60    0.50
   0  -1   4   -0.10    0.50
  -1  -1  -4  139.89   10.20
   1  -1   4  110.69   10.00
  -1   1   4  116.99    9.90
  -1  -1   4  123.99   10.10
  -1   1  -4  142.59   10.00
   1  -1  -4  140.49   10.20
   1   1   4  146.09   10.20
   2   1  -4 2269.27  165.98
  -2   1   4 2231.98  165.78
   2  -1   4 2053.49  165.88
  -2  -1  -4 2453.35  166.08
   2  -1  -4 2138.39  165.68
   2  -1  -4 2519.15  166.28
  -2   1  -4 2398.16  165.78
   2   1   4 2070.89  166.08
   3   1  -4   37.60    3.80
  -3  -1  -4   46.80    3.80
   3  -1  -4   35.30    3.40
  -4  -1  -4 2419.16  176.28
   4  -1   4 2489.95  175.88
   4  -1   4 2402.46  176.18
   4   1  -4 2281.57  176.18
   4   1   4 2358.16  176.48
   4  -1  -4 2453.85  175.98
  -4   1  -4 2427.26  176.38
   4   1   4 2341.97  176.18
  -4   1  -4 2445.56  175.98
   5  -1   4    3.60    1.40
   5  -1   4    7.90    1.40
   5   1   4    6.20    1.50
   5   1   4    3.30    1.40
   5  -1  -4    8.00    1.50
   6  -1   4  111.69    8.20
   6   1  -4   85.69    8.80
   6   1   4   94.29    8.50
   7   1  -4   20.40    3.40
   7  -1   4   16.90    2.20
   7  -1   4   16.50    2.90
   7   1   4   19.40    3.40
   7   1   4   15.40    2.70
   7  -1  -4   17.40    3.10
   8   1  -4  722.83   52.59
   8  -1   4  653.53   51.29
   8  -1   4  662.33   51.79
   8   1   4  730.73   51.99
   8  -1  -4  652.13   51.59
   8   1   4  676.23   52.19
   8  -1  -4  715.33   52.29
   0  -2  -4 4711.63  313.47
   0   2  -4 3968.40  313.27
   0  -2  -4 4183.18  313.27
   1   2  -4    7.60    1.20
  -1   2   4    7.90    1.10
  -1  -2  -4    7.60    1.40
   1  -2   4    8.30    1.30
  -1   2   4    8.90    1.50
  -1  -2  -4    6.70    1.30
  -1  -2   4   10.00    1.60
   1   2   4   10.20    1.50
  -1   2  -4    8.90    1.20
  -1   2  -4    9.70    1.10
   1  -2  -4    7.50    1.30
   1  -2  -4    7.20    1.10
   1   2   4   10.50    1.50
  -2  -2  -4  976.40   69.49
  -2  -2  -4  894.81   69.09
   2  -2   4  956.40   68.59
   2  -2   4  941.91   68.89
  -2   2   4  944.91   68.69
  -2   2  -4  923.81   68.59
   2   2   4  952.90   69.09
   2  -2  -4  917.51   68.59
   2  -2  -4  886.31   68.99
  -2   2  -4  896.71   68.89
   2   2   4 1010.90   69.19
  -3  -2  -4    5.00    1.50
  -3  -2  -4   11.80    1.80
   3  -2   4    8.40    1.40
   3   2  -4    7.70    1.60
  -3   2  -4    5.30    1.30
   3   2   4    6.40    1.40
   3  -2  -4    9.50    1.60
   3   2   4    7.90    1.70
   3  -2  -4    7.00    1.10
   4  -2   4  729.83   57.09
   4  -2  -4  782.12   56.79
   4   2   4  803.72   57.39
   5  -2   4   12.60    1.50
   5   2  -4   13.80    3.50
   5  -2   4   10.10    2.00
   5   2   4    9.90    2.40
   5   2   4   10.30    2.00
   5  -2  -4   15.00    2.90
   5  -2  -4   13.10    1.70
   6   2  -4 1248.88   95.09
   6  -2   4 1375.96   93.99
   6  -2   4 1210.18   94.29
  -6  -2  -4 1366.06   96.79
   6   2  -4 1335.07   95.49
   6   2   4 1120.19   94.49
   6   2   4 1334.17   95.09
   6  -2  -4 1232.58   93.89
   7  -2   4   31.40    3.70
  -7  -2  -4   34.10    5.30
   7   2  -4   38.20    4.50
   7  -2   4   29.10    3.20
   7   2   4   31.20    3.80
   7   2   4   42.60    4.60
   7  -2  -4   28.70    3.50
   8  -2   4   26.30    3.20
   8   2  -4   33.80    5.10
   8   2   4   27.50    3.70
   8  -2  -4   26.60    3.70
   0   3   4    2.10    0.90
   0   3   4    2.40    0.90
   0  -3  -4    1.60    0.70
   0  -3  -4    1.20    0.60
   0   3  -4    1.60    0.80
   0  -3   4    1.10    0.90
  -1  -3  -4  526.15   39.00
   1  -3   4  532.85   38.80
  -1   3   4  525.75   38.60
  -1   3  -4  491.45   38.70
  -1  -3   4  568.94   39.10
   1  -3  -4  493.75   38.60
   1   3   4  529.75   39.00
   2  -3   4 1876.01  141.79
   2   3  -4 1952.60  142.09
  -2  -3  -4 1780.12  142.19
  -2   3   4 1925.81  141.49
  -2  -3  -4 2131.39  142.29
   2   3   4 1895.01  142.19
   2  -3  -4 2164.68  142.09
  -2   3  -4 1763.82  141.79
   3  -3   4   30.00    2.80
   3  -3  -4   29.20    3.00
  -3   3  -4   31.20    2.90
   3   3   4   25.30    4.10
   3   3   4   30.90    3.40
   4   3  -4 1035.70   83.19
   4  -3   4 1223.98   82.49
  -4   3  -4 1210.78   82.69
   4   3   4 1017.20   82.79
   4  -3  -4 1118.29   82.69
   4   3   4 1104.49   83.09
   5  -3   4    3.80    1.00
   5   3  -4    3.90    1.60
   5   3  -4    4.90    2.60
   5   3   4    3.50    1.50
   5  -3  -4    4.80    0.90
   5   3   4    3.10    1.60
   5  -3  -4    2.70    1.70
   6  -3   4   21.40    2.40
  -6  -3  -4    8.90    3.80
   6   3  -4   12.70    3.40
   6  -3  -4   15.10    2.20
  -6   3  -4   10.40    3.10
   6   3   4   12.60    3.00
   7   3  -4    1.40    1.30
   7  -3   4    2.40    1.30
  -7  -3  -4    2.00    2.30
   7   3   4    3.70    1.90
   7   3   4    2.30    1.20
   7  -3  -4    1.90    1.00
   8  -3   4  834.32   63.79
   8   3  -4  906.11   66.59
   8   3   4  958.90   65.99
   8   3   4  865.01   64.59
   8  -3  -4  818.32   64.19
   8  -3  -4  780.52   63.39
   0  -4  -4 7453.15  540.75
   0  -4  -4 7346.27  540.55
  -1  -4  -4   10.80    1.80
   1  -4   4   14.00    1.90
   1   4  -4   11.10    1.80
  -1   4   4   13.70    1.50
  -1   4   4   12.00    2.00
   1   4   4   14.50    1.90
   1  -4  -4   14.70    1.50
   1  -4  -4   11.70    1.80
   1   4   4   10.40    1.80
  -2   4   4  525.45   38.10
   2  -4   4  511.85   37.70
   2   4   4  480.55   38.10
   2   4   4  524.15   38.20
  -2   4  -4  506.35   37.70
   2  -4  -4  502.95   37.90
   3  -4   4    2.60    0.90
   3   4  -4    1.70    1.00
   3   4   4    0.40    0.90
   3  -4  -4    4.50    1.10
  -3   4  -4    2.10    0.80
   3   4   4    1.90    1.00
   4  -4   4  394.86   27.70
   4   4  -4  363.86   31.80
   4   4  -4  374.36   28.80
  -4   4  -4  354.06   27.90
   4   4   4  384.36   28.50
   4  -4  -4  340.97   30.50
   5   4  -4   28.60    3.70
  -5  -4  -4   37.70    7.20
   5  -4   4   27.60    3.00
   5   4  -4   40.60    7.20
   5   4   4   36.30    4.10
  -5   4  -4   27.60    3.20
   5  -4  -4   33.60    5.80
   5   4   4   24.30    3.40
   6  -4   4  515.35   40.80
   6   4  -4  581.54   44.30
  -6  -4  -4  540.55   44.70
   6   4  -4  544.35   42.20
  -6   4  -4  566.44   43.90
   6   4   4  543.95   41.70
   7   4  -4   48.60    5.50
  -7  -4  -4   48.30   12.00
   7  -4   4   35.00    4.10
   7   4   4   43.90    5.50
   7   4   4   48.50    5.10
   8   4  -4   43.50    6.00
   8  -4  -4   51.19    5.30
   8   4   4   45.80    5.70
   0  -5   4    0.40    1.00
   0  -5  -4    0.20    0.70
   0   5  -4    0.40    0.80
   0   5  -4    0.30    0.60
   0   5   4    1.40    0.90
   0   5   4    0.40    0.80
  -1   5   4   84.19    6.70
   1  -5   4   76.19    6.50
  -1   5   4   76.59    6.20
   1   5  -4   78.19    6.70
  -1   5  -4   76.49    6.20
   1   5   4   74.09    6.60
  -1   5  -4   72.49    6.40
   1   5   4   82.09    6.80
   1  -5  -4   81.99    6.60
  -2   5   4 1965.30  131.69
   2  -5   4 1821.32  131.29
   2   5  -4 1741.53  131.79
   2  -5  -4 1890.11  131.49
   2   5   4 1695.13  131.69
   2   5   4 1735.23  131.79
   2  -5  -4 1659.03  135.19
   3   5  -4   46.40    8.90
   3   5  -4   45.50    4.80
   3  -5   4   45.60    4.10
  -3   5   4   51.49    4.80
   3  -5  -4   49.50    4.30
   3   5   4   47.90    4.90
   3   5   4   42.60    4.60
   3  -5  -4   49.99    8.40
   4   5  -4  735.63   55.79
  -4  -5  -4  745.93   55.99
   4  -5   4  661.03   50.29
   4   5  -4  620.74   51.39
  -4   5  -4  663.83   50.49
   4  -5  -4  714.63   54.59
   4   5   4  673.13   51.39
   5   5  -4    1.80    2.90
  -5  -5  -4    2.90    2.90
   5  -5   4    4.00    1.10
   5   5  -4    3.50    1.50
   5   5   4    5.90    1.90
   5   5   4    4.20    1.60
  -5   5  -4    3.10    2.70
  -5   5  -4    3.80    1.10
   5  -5  -4    6.10    3.20
   6  -5   4   26.10    2.70
  -6   5  -4   11.70    5.30
   6   5   4   20.30    4.10
   7  -5   4   -0.60    1.00
   7   5  -4    2.50    2.20
   7   5   4    0.20    1.40
   8   5  -4  478.75   38.50
   8  -5  -4  455.45   37.20
   8   5   4  504.25   38.20
   8   5   4  516.65   38.70
   0   6   4  603.84   46.50
   0  -6  -4  678.53   54.69
   0   6  -4  611.34   46.30
   1   6  -4   21.50    2.60
  -1  -6  -4   16.80    5.00
  -1   6   4   21.80    2.20
   1  -6   4   18.60    2.60
  -1   6   4   20.10    2.60
   1   6   4   20.60    2.70
  -1   6  -4   15.40    2.30
   1  -6  -4   29.00    6.10
   1   6   4   23.60    2.70
  -1   6  -4   23.20    2.20
   2   6  -4  402.76   37.30
   2  -6   4  463.15   31.90
   2   6  -4  391.86   32.50
  -2   6   4  420.66   32.20
  -2  -6  -4  497.05   38.50
  -2   6  -4  448.66   31.80
   2  -6  -4  384.66   32.20
   2   6   4  372.96   32.30
   2   6   4  443.16   32.50
   2  -6  -4  476.85   37.40
  -3   6   4   56.49    5.50
   3   6  -4   58.49    5.80
   3   6  -4   41.80    8.20
   3  -6   4   65.99    5.20
  -3   6  -4   57.29    5.10
   3   6   4   58.39    5.90
  -3   6  -4   66.09    9.60
   3  -6  -4   66.29    9.10
  -4  -6  -4  299.47   29.20
   4  -6   4  332.67   24.10
   4   6  -4  340.07   29.90
   4   6  -4  357.36   25.50
  -4   6  -4  282.97   24.10
   4  -6  -4  275.77   28.10
  -4   6  -4  316.37   29.30
   4   6   4  357.16   25.20
   4   6   4  312.37   25.20
   5  -6   4   13.60    1.80
  -5  -6  -4    9.00    4.50
   5   6  -4    8.50    2.30
  -5   6  -4    8.20    4.10
   5   6   4   14.30    2.90
   5   6   4    9.70    3.00
  -5   6  -4    9.30    1.80
   6   6  -4 1262.67   98.89
   6   6  -4 1220.18   95.09
  -6  -6  -4 1318.37   99.99
   6   6   4 1323.07   95.29
  -6   6  -4 1295.17   98.29
   6   6   4 1212.08   94.79
   7  -6   4    4.50    1.40
   7   6   4    4.50    2.60
   7   6   4    6.30    2.50
   0  -7  -4   -1.20    3.10
   0   7   4    0.10    1.10
   0   7   4    0.00    0.90
   0   7  -4   -7.30    4.10
   0   7  -4    0.00    0.80
   1   7  -4    2.00    1.10
  -1   7   4    0.80    0.90
   1   7  -4    2.90    3.90
  -1   7   4   -0.70    1.00
  -1  -7  -4    1.70    2.80
  -1   7  -4    2.30    0.90
   1   7   4    3.60    1.40
   1  -7  -4    2.80    3.20
  -1   7  -4    7.00    3.00
   2  -7   4  817.42   54.99
   2   7  -4  704.33   55.49
   2   7  -4  631.04   60.89
  -2   7   4  740.33   55.19
  -2  -7  -4  769.12   61.69
   2  -7  -4  734.13   60.69
   2   7   4  734.83   55.49
  -2   7  -4  841.52   62.29
  -2   7  -4  726.83   54.79
   2   7   4  707.73   55.39
  -3   7   4   34.90    4.10
   3   7  -4   40.10    4.40
  -3  -7  -4   41.80    9.50
   3  -7   4   39.60    3.80
  -3   7  -4   32.60    8.00
   3   7   4   34.80    4.20
   3   7   4   40.90    4.50
  -3   7  -4   33.20    3.50
   3  -7  -4   27.30    6.80
   4  -7   4  684.23   51.29
   4   7  -4  794.72   58.89
   4   7  -4  660.03   52.59
  -4  -7  -4  744.13   63.79
   4  -7  -4  755.32   57.79
   4   7   4  633.84   52.29
   4   7   4  725.13   52.69
  -4   7  -4  637.04   51.29
   5   7  -4    4.00    1.50
  -5  -7  -4    1.50    4.40
   5  -7   4    0.20    1.10
   5   7  -4    0.50    4.30
  -5   7  -4    0.30    1.00
   5   7   4    1.70    1.30
  -5   7  -4    2.20    3.50
   5   7   4    1.20    1.40
   7   7  -4    6.50    2.40
   7   7   4    3.30    2.20
   7   7   4    5.60    2.40
   0   8  -4  881.41   67.59
   0  -8  -4  804.72   66.39
   0   8  -4  772.92   59.49
   0   8   4  748.23   60.89
   0   8   4  821.22   59.49
  -1   8   4    2.10    0.90
   1   8  -4    2.60    4.10
  -1  -8  -4    1.50    3.80
  -1   8   4    0.40    1.20
   1   8  -4    2.10    1.10
  -1   8  -4    2.10    1.00
   1  -8  -4    1.10    3.60
  -1   8  -4    4.70    4.20
   1   8   4    1.80    1.30
   1   8   4    1.40    1.60
   2   8  -4   83.69    8.40
  -2  -8  -4  121.19   15.30
  -2   8   4   88.29    8.10
   2   8  -4  102.39   14.30
   2   8   4  105.89    8.70
   2   8   4   83.29    8.40
   2  -8  -4  105.19   14.10
  -2   8  -4  111.69   14.60
  -3   8   4   22.80    3.40
   3   8  -4   34.90    4.20
   3   8  -4   18.00    6.90
  -3   8  -4   28.40    7.30
  -3   8  -4   28.80    3.10
   3   8   4   38.90    4.30
   3  -8  -4   32.10    8.20
   3   8   4   37.50    4.20
   4   8  -4  321.17   24.20
  -4  -8  -4  284.07   30.00
   4  -8   4  328.77   22.80
   4   8  -4  268.47   29.40
  -4   8  -4  260.77   22.60
  -4   8  -4  297.27   29.20
   4   8   4  325.17   24.10
   4   8   4  294.07   24.10
   5   8  -4   22.10    4.10
   5   8  -4   14.80    6.50
   5  -8   4   21.30    2.70
  -5  -8  -4   13.90    6.40
   5   8   4   22.20    4.20
  -5   8  -4   24.30    7.20
   5   8   4   20.10    3.90
   6   8  -4  447.06   36.70
  -6  -8  -4  506.55   53.49
   6   8   4  510.15   37.00
   6   8   4  428.06   36.60
   0   9   4   -0.90    1.20
   0   9  -4   -2.50    5.00
   0   9  -4   -1.90    1.20
   0   9   4   -0.50    1.30
   0  -9  -4   -5.00    3.60
  -1   9   4    6.10    2.00
   1   9  -4   13.30    6.70
  -1   9   4   10.10    1.80
  -1  -9  -4    1.90    4.70
   1   9  -4    7.30    2.00
  -1   9  -4   10.10    1.80
   1   9   4   12.20    3.90
  -1   9  -4    5.40    5.40
   1   9   4    6.90    2.30
   1  -9  -4   -0.20    3.60
   2   9  -4  312.77   25.90
   2   9  -4  345.27   33.20
  -2  -9  -4  300.87   32.70
  -2   9  -4  343.97   33.00
   2   9   4  340.37   26.10
   2   9   4  332.27   25.90
   2  -9  -4  341.77   32.90
  -3   9   4   11.50    2.60
  -3  -9  -4    9.70    6.30
   3   9  -4   13.30    3.00
   3   9  -4   19.90    7.50
  -3   9  -4    7.60    4.50
   3   9   4   13.40    3.00
   3   9   4   10.80    2.70
  -4   9   4  375.26   32.50
   4   9  -4  432.16   33.50
   4   9  -4  431.46   40.30
  -4  -9  -4  464.45   41.60
   4   9   4  483.05   33.70
   4   9   4  400.86   33.10
   4  -9  -4  464.95   40.30
  -4   9  -4  452.95   40.10
  -4   9  -4  390.86   31.80
  -5  -9  -4    0.60    5.60
   5   9  -4    1.80    4.50
   5   9  -4    1.90    1.90
   5   9   4    1.90    1.80
   5   9   4   -0.60    1.60
   6   9  -4    9.90    3.20
   6   9   4   14.00    3.10
   0  10  -4  496.25   40.30
   0  10  -4  581.64   49.80
   0  10   4  538.45   40.20
   0  10   4  530.85   40.80
   0 -10  -4  560.34   49.50
   1  10  -4   14.90    7.00
  -1 -10  -4   -0.50    5.10
   1  10  -4    2.80    1.60
  -1  10   4    6.00    1.60
  -1  10   4    4.10    1.90
  -1  10  -4    5.20    1.70
  -1  10  -4    6.40    6.10
   1 -10  -4    5.80    6.00
   1  10   4    4.10    1.90
   1  10   4    3.40    2.00
   2  10  -4  128.99   18.60
  -2 -10  -4  131.59   19.30
  -2  10   4  105.09    9.90
   2  10  -4  106.09   10.20
   2  10   4  114.09   10.40
   2 -10  -4  119.39   17.50
  -2  10  -4  142.79   18.50
   3  10  -4   15.80    8.60
   3  10  -4   14.60    3.10
  -3  10   4   14.00    2.80
  -3 -10  -4    8.30    7.40
   3 -10  -4    4.20    5.40
  -3  10  -4   19.50    7.10
   3  10   4    9.70    2.70
   3  10   4   11.90    3.10
   4  10  -4   83.69    9.80
  -4 -10  -4   72.69   16.30
   4  10  -4   85.19   16.70
  -4  10   4   83.29    8.00
   4  10   4   88.89    8.80
   4  10   4   79.59    8.40
   5  10  -4    5.30    2.40
   5  10   4    1.70    1.80
   5  10   4    1.50    2.00
   0  11  -4   -0.90    6.10
   0 -11  -4    0.60    5.50
   0  11  -4   -4.30    1.40
   0  11   4   -0.20    1.90
  -1 -11  -4   13.00    7.70
   1  11  -4    7.20    2.20
  -1  11   4    7.00    1.60
   1  11  -4    9.80    7.90
  -1  11   4    5.90    2.30
   1  11   4    7.10    2.60
  -1  11  -4    9.00    2.00
  -1  11  -4   20.10    7.50
   1 -11  -4    9.50    6.90
   1  11   4    8.70    2.30
   2  11  -4  318.57   25.10
  -2 -11  -4  341.87   35.60
  -2  11   4  287.27   24.60
   2  11  -4  373.26   35.60
   2 -11  -4  290.47   33.20
   2  11   4  292.57   25.10
   2  11   4  336.37   25.20
  -3 -11  -4    6.30    8.40
  -3  11   4    7.90    2.60
   3  11  -4    3.50    2.20
   3  11  -4    1.70    7.20
   3  11   4    6.30    2.40
   3  11   4    4.30    2.20
  -3  11  -4   -0.30    6.70
  -4  11   4   76.39    8.50
   4  11  -4   85.59    9.00
   4  11  -4  106.29   18.70
   4  11   4   93.19    9.40
   4  11   4  112.79    9.90
   0  12  -4  251.57   33.50
   0  12   4  239.58   18.00
   0 -12  -4  260.07   28.90
   0  12   4  203.88   18.40
   0  12  -4  209.88   18.00
  -1 -12  -4   -8.20    5.90
  -1  12   4    2.90    2.10
   1  12  -4    0.20    8.00
   1  12  -4    2.80    1.90
  -1  12   4   -0.40    1.50
  -1  12  -4   -5.50   14.90
   1  12   4    2.30    2.00
   1  12   4    1.60    1.80
  -1  12  -4    0.80    2.10
  -2  12   4   40.00    5.40
   2  12  -4   22.90   15.70
   2  12  -4   40.50    5.70
  -2 -12  -4   53.39   16.40
   2  12   4   45.40    5.90
   2  12   4   57.19    6.10
  -2  12  -4   49.10   13.90
   3  12  -4    1.30    1.80
   3  12  -4   -3.70    8.10
  -3  12   4    2.20    2.50
   3  12   4    4.40    2.60
   3  12   4    3.90    2.50
   0   0   5    2.20    0.70
   0   0   5    4.70    1.10
   0   0  -5    1.70    0.70
   0   0  -5    2.10    0.70
  -1   0   5  153.78   12.30
   1   0  -5  185.88   12.70
  -1   0  -5  167.98   12.40
   1   0   5  149.29   12.40
   1   0  -5  153.88   12.50
   2   0   5 3328.27  254.27
  -2   0  -5 3506.75  254.17
   2   0  -5 3250.57  254.07
   2   0   5 3863.21  254.27
  -2   0   5 3427.76  254.17
  -3   0  -5  134.09   11.70
   3   0   5  156.68   11.50
   3   0   5  143.59   11.70
  -3   0  -5  151.68   11.60
   3   0  -5  152.18   11.70
  -4   0  -5 2200.08  159.18
   4   0   5 2197.18  157.98
   4   0   5 2052.39  158.28
   4   0  -5 2167.18  157.98
  -5   0  -5   31.80    3.20
   5   0   5   29.00    3.10
   6   0   5  124.09   10.60
   7   0   5    3.20    1.60
   7   0   5    1.10    1.00
   8   0   5  538.35   41.30
   8   0   5  549.45   41.80
   8   0  -5  550.14   42.20
   0  -1  -5 1010.10   75.59
   0   1   5 1103.49   75.69
   0  -1  -5  997.90   75.49
   0   1  -5  991.80   75.49
   0   1   5 1021.20   75.49
   0  -1   5  980.50   75.49
   0   1  -5 1084.79   75.59
   1  -1   5   15.00    1.70
  -1   1   5   14.50    1.70
  -1  -1  -5   11.20    1.60
   1   1  -5   13.80    1.70
  -1  -1   5   16.40    1.80
   1   1   5   12.90    1.80
   1  -1  -5   12.80    1.50
  -1   1  -5   12.90    1.60
   2  -1   5  874.01   59.49
  -2  -1  -5  780.92   59.59
   2  -1   5  794.12   59.59
  -2   1   5  810.22   59.39
  -2  -1  -5  721.03   59.69
   2   1  -5  804.02   59.69
   2   1   5  825.82   59.69
  -2   1  -5  792.92   59.39
  -2  -1   5  818.72   59.69
   2  -1  -5  778.82   59.29
   2  -1  -5  820.12   59.79
   2   1   5  862.41   59.69
  -3  -1  -5  169.18   13.80
   3  -1   5  196.28   13.90
   3  -1   5  176.38   13.50
   3   1  -5  177.88   13.70
  -3   1  -5  169.48   13.80
   3   1   5  167.68   13.70
   3   1   5  196.28   14.10
  -3   1  -5  174.08   13.50
   3  -1  -5  159.28   14.00
   3  -1  -5  185.88   13.50
  -4  -1  -5 1299.37  100.09
   4  -1   5 1443.46   99.79
  -4   1  -5 1363.46   99.79
   4   1   5 1322.67   99.99
   5  -1   5   65.89    5.10
   5  -1   5   54.39    5.40
  -5   1  -5   57.39    5.50
   5  -1  -5   58.59    5.10
   5   1   5   55.59    5.30
   5   1   5   53.19    5.80
   6  -1   5 1888.41  128.59
   6  -1   5 1705.83  128.99
   6   1   5 1584.34  128.79
   6   1   5 1815.72  129.39
   7  -1   5   36.90    3.80
   7   1  -5   39.80    4.80
  -7  -1  -5   43.10    5.70
   7  -1   5   38.10    4.30
   7   1   5   42.30    4.80
   7   1   5   34.90    4.00
   8  -1   5   32.50    3.80
   8   1  -5   35.10    4.90
   8  -1  -5   34.60    4.50
   8   1   5   38.60    4.30
   0  -2  -5    1.40    0.60
   0   2   5    0.40    0.70
   0   2  -5    1.00    0.50
   0   2  -5    2.00    0.90
   0  -2   5    1.70    0.80
   0   2   5    0.40    0.70
   0  -2  -5    1.80    0.70
  -1   2   5  229.28   17.60
  -1  -2  -5  235.28   17.80
   1  -2   5  231.88   17.70
  -1  -2  -5  204.58   17.70
  -1   2  -5  264.67   17.60
   1  -2  -5  255.27   18.00
  -1  -2   5  240.58   17.80
   1   2   5  260.97   17.90
   1  -2  -5  221.18   17.50
  -1   2  -5  216.08   17.70
   1   2   5  214.88   17.70
   2  -2   5 4953.60  327.47
  -2  -2  -5 4185.48  327.87
   2  -2   5 4196.18  327.57
   2   2  -5 4371.56  327.67
  -2  -2  -5 4668.83  327.87
   2  -2  -5 4163.18  327.27
   2   2   5 4821.52  327.97
   2   2   5 4293.07  327.77
  -2   2  -5 4529.65  327.37
   2  -2  -5 4613.64  327.77
  -2  -2   5 4491.75  327.77
  -3  -2  -5   73.99    6.40
   3  -2   5   83.59    5.90
   3  -2   5   69.39    6.20
  -3   2  -5   61.29    6.20
   3   2   5   67.69    6.40
   3  -2  -5   76.39    6.40
   3   2   5   80.59    6.40
   3  -2  -5   70.69    5.80
  -3   2  -5   79.29    5.90
   4  -2   5  729.13   56.39
   4  -2   5  844.62   55.99
   4   2   5  699.13   56.49
   4  -2  -5  780.02   55.99
  -4   2  -5  796.82   56.09
   4   2   5  702.73   56.69
   5  -2   5    3.20    1.40
   5   2   5    2.80    1.20
   5   2   5    3.30    1.40
   6  -2   5   49.20    5.30
   6   2   5   48.40    5.40
   7  -2   5    2.00    1.10
  -7  -2  -5   -2.70    2.00
   7  -2   5    1.20    0.90
   7   2  -5    2.30    1.30
   7  -2  -5    0.00    0.90
   7   2   5    1.60    1.00
   7   2   5    0.80    1.30
   8  -2   5  535.75   41.30
   8   2  -5  596.04   45.70
   8  -2   5  549.54   40.70
   8  -2  -5  563.74   42.00
   8  -2  -5  465.75   42.50
   8   2   5  563.94   41.70
   0   3  -5 6322.87  486.85
   0  -3  -5 6599.34  486.95
   0   3   5 7303.97  487.15
   0  -3  -5 6428.36  486.85
  -1   3   5   39.60    3.80
  -1   3   5   31.90    3.30
  -1  -3  -5   36.70    3.60
   1  -3  -5   32.40    3.20
   1   3   5   42.30    3.80
   1  -3  -5   36.50    3.50
   1   3   5   40.40    3.70
  -1   3  -5   42.70    3.40
  -1  -3   5   37.60    3.70
  -2  -3  -5  738.03   56.19
   2   3  -5  783.02   56.19
  -2   3   5  790.42   56.39
  -2   3   5  774.82   55.59
   2  -3   5  744.83   55.89
  -2  -3  -5  773.22   56.39
  -2   3  -5  733.83   55.89
   2   3   5  755.42   56.19
   2  -3  -5  721.83   55.59
   2  -3  -5  744.23   56.09
   2   3   5  768.92   56.29
   3  -3   5    2.00    0.70
   3   3   5    1.50    1.00
   3   3   5    2.80    1.00
  -3   3  -5    2.60    0.90
   3  -3  -5    1.30    0.60
   3  -3  -5    2.20    0.90
   4  -3   5  358.16   27.20
   4   3   5  376.46   27.70
   4  -3  -5  352.66   26.80
   5   3  -5    6.30    1.80
   5  -3  -5    5.20    1.00
   5   3   5    5.80    1.70
   5   3   5    5.20    1.80
   6   3  -5  663.23   48.30
  -6  -3  -5  610.64   50.49
   6   3  -5  612.24   49.70
   6  -3  -5  608.34   48.30
   6  -3  -5  662.43   46.60
   6   3   5  657.73   48.00
   6   3   5  583.74   47.40
   7   3  -5   15.10    3.40
   7  -3   5   15.20    2.60
   7  -3  -5   13.30    1.90
  -7   3  -5   10.30    3.00
   7   3   5   10.50    2.40
   7  -3  -5   14.70    2.20
   7   3   5   16.30    3.30
   8   3  -5   42.60    5.80
   8   3   5   51.09    5.50
   0  -4   5    1.60    1.10
   0   4  -5    3.10    1.00
   0  -4  -5    0.20    0.70
   0   4   5    1.00    1.00
   0  -4  -5    1.60    0.80
   0   4   5    3.00    1.00
  -1   4   5   11.30    1.90
  -1  -4  -5    8.80    1.80
  -1  -4  -5    8.00    1.70
   1   4  -5    7.80    1.50
   1  -4   5    7.60    1.70
  -1   4   5   11.30    1.30
   1   4   5    8.90    1.70
   1  -4  -5    8.90    1.60
  -1   4  -5    6.80    1.40
  -1  -4   5    9.90    1.90
   1   4   5    8.90    1.70
   1  -4  -5    8.80    1.40
   2  -4   5 2478.95  183.38
  -2   4   5 2550.54  183.08
   2  -4  -5 2667.73  183.68
   2   4   5 2376.36  183.78
   2   4   5 2555.84  183.88
  -2   4  -5 2395.16  183.38
   3  -4   5   35.20    3.30
  -3   4  -5   33.80    3.40
   3   4   5   31.70    3.70
   3   4   5   36.50    4.30
   4   4  -5  529.35   42.90
   4  -4   5  574.14   42.00
  -4   4  -5  564.84   42.40
   4   4   5  551.44   44.00
   4   4   5  600.34   42.90
   5   4  -5    1.20    1.30
   5   4  -5   -0.70    2.30
   5  -4   5    1.20    0.90
   5   4   5    0.60    0.70
   5  -4  -5    1.20    2.00
   5   4   5    0.00    1.00
   6   4  -5   29.10    6.10
  -6  -4  -5   28.10    6.80
   6  -4   5   40.90    3.90
   6  -4  -5   32.20    6.00
   6   4   5   38.50    5.00
   7  -4   5   24.40    3.00
   7   4  -5   27.40    4.70
  -7  -4  -5   17.10    4.80
   7   4   5   27.50    4.10
   7   4   5   28.90    4.10
  -7   4  -5   16.60    4.50
   8   4  -5  564.44   43.60
   8  -4   5  564.44   42.00
   8   4   5  534.25   43.20
   8   4   5  563.54   44.00
   0  -5   5 2166.18  163.58
   0   5   5 2160.38  163.68
   0   5  -5 2338.87  163.58
   0   5   5 2249.57  163.38
   1  -5   5    6.70    1.40
  -1   5   5    5.00    1.10
  -1   5   5    5.60    1.50
   1   5  -5    6.80    1.60
  -1   5  -5    5.70    1.10
   1  -5  -5    5.20    1.10
  -1   5  -5    4.90    1.10
   1   5   5    3.20    1.20
   1   5   5    5.90    1.50
   2   5  -5  388.16   30.10
  -2   5   5  395.66   29.90
   2  -5   5  415.06   29.50
  -2   5  -5  406.56   29.50
   2   5   5  408.06   30.00
   2   5   5  346.57   29.90
   3   5  -5   52.29    5.50
   3  -5   5   57.49    4.80
  -3   5   5   51.09    5.30
  -3   5  -5   58.89    4.90
   3   5   5   49.90    5.70
   4   5  -5  302.07   29.30
   4   5  -5  336.17   25.60
   4  -5   5  322.27   24.50
   4   5   5  339.17   25.60
   4  -5  -5  316.57   28.30
   5   5  -5   27.40    4.30
   5  -5   5   21.00    2.70
   5   5  -5   24.30    6.50
  -5  -5  -5   32.80    7.50
   5   5   5   27.10    3.40
   5   5   5   23.90    4.00
   6   5  -5  837.42   66.39
   6  -5   5  747.83   61.59
  -6  -5  -5  844.12   67.19
   6   5  -5  850.21   63.29
  -6   5  -5  840.62   66.29
   6   5   5  836.12   62.69
   6   5   5  900.01   63.29
   6  -5  -5  819.82   65.09
   7   5  -5   11.70    3.20
  -7  -5  -5   17.00    5.50
   7   5   5   13.80    3.30
   7   5   5   10.50    2.50
   8  -5   5   41.70    4.10
   8   5  -5   30.10    5.40
   8   5   5   26.10    4.70
   0   6   5    0.20    0.90
   0   6   5    0.70    0.80
   0   6  -5   -0.20    0.70
   1   6  -5   95.19    8.50
   1  -6   5   94.39    8.40
  -1   6   5   98.59    8.60
  -1   6   5  111.09    8.10
  -1   6  -5  107.09    8.20
   1   6   5   94.89    8.70
   1   6   5  102.99    8.50
   2  -6   5 1636.74  114.89
  -2   6   5 1576.74  115.19
   2   6  -5 1507.25  115.39
   2   6   5 1611.14  115.39
   2   6   5 1469.55  115.99
   3   6  -5   28.70    3.60
   3  -6   5   29.10    2.90
  -3   6   5   31.60    3.50
   3   6  -5   19.80    5.50
  -3  -6  -5   22.90    6.20
   3   6   5   25.70    3.30
   3  -6  -5   20.50    6.00
  -3   6  -5   22.00    2.80
   3   6   5   21.80    3.60
   4   6  -5  542.35   44.40
   4  -6   5  481.25   37.80
   4   6  -5  466.85   38.90
   4  -6  -5  558.34   43.30
   4   6   5  564.44   39.10
   4   6   5  469.05   38.60
   5   6  -5   18.40    3.60
   5  -6   5   16.30    2.30
   5   6  -5   29.90    7.60
  -5  -6  -5   14.40    5.70
   5   6   5   20.40    3.30
  -5   6  -5   12.60    3.80
   5   6   5   15.10    3.20
   6  -6   5   35.90    3.50
   6   6   5   27.10    4.70
  -6   6  -5   19.00    5.70
   7   6  -5   -0.50    1.50
   7  -6   5    2.50    1.40
  -7  -6  -5    5.40    5.20
   7   6   5    4.30    1.70
   7   6   5    3.60    1.80
   0  -7  -5  625.94   51.39
   0   7   5  551.14   45.30
   0   7  -5  621.34   45.10
   0   7   5  620.34   45.00
  -1   7   5    1.90    0.90
  -1  -7  -5   -0.30    2.80
   1   7  -5    1.30    1.00
   1  -7   5    0.80    1.10
  -1   7   5    0.50    1.20
   1   7   5    2.30    1.20
  -1   7  -5    2.10    1.00
   1   7   5    1.80    1.30
   1  -7  -5    3.80    3.40
   2   7  -5  129.79   16.80
  -2  -7  -5  152.08   17.50
   2  -7   5  146.59   11.20
  -2   7   5  124.19   11.30
   2   7  -5  128.79   12.40
   2  -7  -5  167.38   17.30
   2   7   5  138.09   11.70
  -3   7   5   14.70    2.60
   3   7  -5   17.70    6.30
  -3  -7  -5   13.70    5.90
   3   7  -5   14.50    2.90
   3  -7   5   15.00    2.30
   3  -7  -5   20.20    6.00
   3   7   5   13.80    2.80
   3   7   5   15.90    3.00
  -3   7  -5   12.90    5.00
   4   7  -5  376.56   36.20
   4  -7   5  390.86   29.90
   4   7  -5  435.86   31.40
  -4   7  -5  374.26   36.20
   4  -7  -5  343.27   35.20
   4   7   5  386.26   31.10
   4   7   5  449.56   31.30
   5   7  -5   45.00    9.70
   5  -7   5   34.60    3.70
   5   7  -5   38.70    4.80
  -5  -7  -5   40.90    9.50
   5   7   5   36.90    4.70
   5   7   5   46.80    5.40
  -5   7  -5   35.40    8.40
   6   7  -5  766.02   59.09
   6  -7   5  714.23   57.09
   6   7  -5  759.72   63.79
  -6  -7  -5  803.12   65.19
   6   7   5  772.62   61.79
   6   7   5  837.12   59.29
   7  -7   5   12.50    2.00
   7   7  -5   20.50    4.10
  -7  -7  -5   14.50    7.80
   7   7   5   13.50    3.20
   7   7   5   13.80    3.20
   0   8  -5   -1.30    0.80
   0  -8  -5    1.80    3.90
   0   8   5    0.60    1.30
   0   8   5    0.10    0.90
   0   8  -5    1.10    4.40
   1   8  -5    3.70    1.50
  -1   8   5    5.30    1.30
  -1  -8  -5    2.10    3.30
  -1   8   5    4.30    1.60
   1   8  -5    1.10    3.80
   1   8   5    1.90    1.30
   1   8   5    2.30    1.60
   1  -8  -5    2.40    4.00
  -1   8  -5    2.90    1.20
   2   8  -5  539.05   48.20
   2   8  -5  526.05   41.10
  -2   8   5  475.35   41.80
  -2  -8  -5  607.74   48.70
   2   8   5  543.05   41.00
  -2   8  -5  575.54   48.50
   2  -8  -5  553.64   47.30
   2   8   5  543.95   41.20
  -3   8   5   24.10    3.80
  -3  -8  -5   21.80    7.60
   3   8  -5   25.50    4.10
   3   8  -5   21.30    6.80
   3  -8   5   19.00    2.90
   3  -8  -5   16.00    5.80
  -3   8  -5   26.40    7.20
   3   8   5   22.40    3.70
   3   8   5   29.20    4.30
  -4  -8  -5  634.34   52.29
   4   8  -5  562.94   45.00
   4  -8   5  544.55   43.60
   4   8  -5  613.54   51.79
  -4   8  -5  630.54   53.09
   4   8   5  639.34   45.20
   4  -8  -5  575.74   54.79
   4   8   5  542.05   44.80
   5  -8   5    2.80    1.50
  -5  -8  -5    9.40    6.30
   5   8  -5    4.00    2.00
   5   8  -5    6.50    6.00
   5  -8  -5   12.30    7.90
   5   8   5    9.90    2.70
   5   8   5    2.00    1.70
  -5   8  -5    6.10    4.40
  -6  -8  -5   31.30   11.40
   6   8  -5   26.40    4.60
   6   8   5   28.10    4.70
   6   8   5   19.80    4.30
   0   9   5  765.52   56.29
   0   9  -5  714.13   56.39
   0   9   5  714.73   56.79
   0  -9  -5  785.82   66.59
   0   9  -5  854.51   65.79
  -1   9   5   12.80    2.70
   1   9  -5   11.40    2.30
  -1  -9  -5    8.80    4.70
   1   9  -5    2.90    4.50
  -1   9   5   13.70    2.10
   1  -9  -5   11.90    4.90
  -1   9  -5    4.20    4.30
   1   9   5   13.20    2.90
  -1   9  -5   14.10    2.30
   1   9   5   15.50    3.00
   2   9  -5  141.29   17.70
  -2  -9  -5  133.59   17.40
   2   9  -5   99.89    9.80
  -2   9   5   94.29    9.50
   2   9   5  121.69    9.90
   2   9   5  103.49    9.90
  -2   9  -5  130.49   17.20
   2  -9  -5  115.59   16.10
  -3   9   5   15.80    3.00
   3   9  -5   19.30    3.50
   3   9  -5    6.70    5.90
  -3  -9  -5   14.30    6.70
   3   9   5   16.10    3.40
   3   9   5   12.50    2.80
  -3   9  -5   17.90    7.00
  -4  -9  -5  143.79   20.00
  -4   9   5  155.38   13.40
   4   9  -5  148.09   20.00
   4   9  -5  164.28   13.90
   4   9   5  163.78   13.70
  -4   9  -5  146.39   19.10
   4  -9  -5  151.48   18.80
   4   9   5  155.38   13.90
   5   9  -5   -0.40    4.80
   5   9  -5    3.70    2.20
  -5  -9  -5    0.00    8.30
   5   9   5    1.70    1.70
   5   9   5    6.80    2.80
  -6  -9  -5  288.87   31.80
   6   9  -5  245.28   22.20
   6   9   5  284.47   22.50
   6   9   5  257.17   22.10
   0  10  -5   -1.90    4.70
   0  10   5   -3.40    1.30
   0 -10  -5   -6.10    4.50
   0  10   5    4.20    2.00
   0  10  -5   -1.40    1.50
  -1 -10  -5   17.80   10.80
  -1  10   5   17.80    2.50
   1  10  -5   11.00    2.70
   1  10  -5   17.20    7.20
  -1  10   5   25.90    3.80
  -1  10  -5   18.90    2.80
   1 -10  -5   23.20   12.00
   1  10   5   15.90    2.90
  -1  10  -5   22.70    8.40
   1  10   5   13.10    3.10
  -2  10   5  418.36   34.90
   2  10  -5  490.55   44.30
   2  10  -5  456.95   35.30
  -2 -10  -5  480.35   44.40
   2  10   5  421.76   35.20
   2  10   5  498.35   35.30
  -2  10  -5  448.16   43.20
   3  10  -5    7.80    6.30
  -3 -10  -5   11.30    7.70
   3  10  -5   11.20    2.90
  -3  10   5    4.00    1.90
   3  10   5    7.00    2.40
   3  10   5    9.90    2.70
  -3  10  -5    4.80    5.40
   3 -10  -5    9.90    6.60
   4  10  -5  115.59   11.40
  -4  10   5   89.89    9.90
   4  10  -5  133.39   18.70
  -4 -10  -5  157.78   23.40
   4  10   5  116.09   10.60
  -5 -10  -5  -10.80    8.20
   5  10  -5   -1.30    1.60
   5  10  -5   -4.60    5.80
   5  10   5   -1.50    1.60
   5  10   5   -2.20    1.80
   0  11  -5  353.16   28.30
   0 -11  -5  404.76   39.20
   0  11   5  382.86   28.10
   0  11  -5  376.66   38.20
   0  11   5  339.97   28.70
   1  11  -5    3.50    1.80
   1  11  -5    6.70    7.10
  -1  11   5    3.50    2.00
  -1  11   5    3.10    1.50
  -1 -11  -5    6.90    6.80
  -1  11  -5    6.70    2.00
  -1  11  -5   -6.70    5.80
   1  11   5    5.70    2.30
   1  11   5    4.20    2.10
   1 -11  -5    7.70    8.60
  -2  11   5   56.09    6.30
   2  11  -5   59.19    6.60
  -2 -11  -5   86.99   17.40
   2  11  -5   49.60   13.60
   2  11   5   55.99    7.30
   2 -11  -5   74.49   15.80
  -2  11  -5   77.19   16.10
   3  11  -5    5.50    2.50
  -3 -11  -5   18.90   11.60
  -3  11   5    2.40    2.30
   3  11  -5   10.10    9.10
   3  11   5    1.30    2.10
   3  11   5    2.40    2.00
   4  11  -5   33.50   12.00
   4  11  -5   59.39    6.50
  -4  11   5   40.00    5.60
  -4 -11  -5   27.30   12.90
   4  11   5   41.10    6.40
   4  11   5   54.59    6.20
   0  12  -5    0.20    2.00
   0  12   5    0.20    2.00
   0  12  -5    3.10    8.80
   0 -12  -5   -8.40    8.40
  -1  12   5    3.00    1.70
  -1 -12  -5    1.50    8.20
  -1  12   5    3.30    2.30
   1  12  -5  -10.40    7.50
   1  12   5    2.90    2.00
   1  12   5    7.00    2.70
   1 -12  -5   -1.80    6.90
  -1  12  -5   -7.50    8.80
   2  12  -5  160.48   34.80
  -2  12   5  150.28   13.60
  -2 -12  -5  145.39   25.40
   2  12  -5  153.68   13.70
   2  12   5  173.88   13.80
  -2  12  -5  202.68   34.70
   2  12   5  141.79   13.90
   0   0   6  276.47   20.20
   0   0  -6  257.87   20.30
   1   0   6    1.30    0.90
   1   0  -6    2.10    0.70
   1   0  -6    0.70    0.70
  -1   0   6    0.80    0.80
  -1   0  -6    2.00    0.80
  -1   0  -6    1.40    0.60
   1   0   6    0.50    0.70
  -2   0   6  711.93   51.89
   2   0   6  777.72   51.99
  -2   0  -6  671.33   51.79
   2   0   6  702.53   51.99
  -2   0  -6  639.14   51.99
  -3   0  -6  328.67   24.40
   3   0   6  352.76   24.40
   3   0  -6  306.67   24.20
   3   0   6  300.37   24.50
   4   0  -6  735.13   58.89
  -4   0  -6  853.51   58.99
  -5   0  -6   71.59    6.40
   5   0   6   75.29    6.20
   5   0   6   63.39    6.40
   6   0   6 2198.48  156.58
   6   0   6 2049.89  156.08
   7   0   6   53.99    5.30
   7   0   6   56.59    5.90
   8   0   6   16.50    2.80
   8   0  -6   24.10    4.30
   0   1   6    0.40    0.60
   0   1   6   -0.50    0.60
   0  -1  -6    0.60    0.80
   0   1  -6    0.80    0.70
   0  -1   6    1.50    0.80
   0   1  -6    0.50    0.70
   0  -1  -6    0.20    0.90
   1   1  -6  249.97   19.00
   1  -1   6  240.38   18.70
  -1  -1  -6  230.68   18.80
  -1   1   6  268.27   19.20
  -1   1   6  246.78   18.60
   1  -1   6  258.27   18.80
  -1  -1  -6  248.88   19.10
  -1   1  -6  239.68   18.70
   1   1   6  264.77   18.90
  -1  -1   6  248.68   18.80
   1   1   6  249.18   18.80
  -1   1  -6  237.68   18.60
   1  -1  -6  233.48   18.90
   1  -1  -6  244.08   18.60
  -2   1   6 2808.62  204.18
  -2  -1  -6 2921.61  204.48
   2  -1   6 2672.53  204.38
   2  -1  -6 2956.50  204.68
  -2   1  -6 2892.01  204.18
   2  -1  -6 2556.64  204.08
   2   1   6 2658.93  204.48
  -2  -1   6 2858.11  204.48
   3  -1   6   75.39    5.80
   3   1  -6   66.89    5.90
  -3  -1  -6   70.49    6.00
   3  -1   6   59.69    5.90
  -3   1  -6   70.79    5.80
   3   1   6   60.89    6.10
   3  -1  -6   76.39    5.90
   3   1   6   74.29    6.00
   4  -1   6 1581.74  108.79
   4  -1   6 1405.26  109.09
   4   1   6 1388.46  109.29
   4  -1  -6 1510.55  108.79
   4   1   6 1414.06  108.99
  -4   1  -6 1577.04  108.89
   5  -1   6   13.70    2.00
   5   1   6   15.30    2.80
  -5   1  -6   13.10    2.10
   6  -1   6   71.99    6.90
   6   1   6   74.19    7.10
   7  -1   6    1.00    1.10
   7  -1   6    1.90    1.50
   7   1   6    6.00    1.80
   7   1   6    1.80    1.20
   8  -1   6  544.25   41.00
   8  -1   6  531.65   41.60
   8   1   6  544.65   41.50
   8  -1  -6  560.84   42.40
   0   2   6 3600.04  234.88
   0  -2   6 3083.69  234.48
   0   2  -6 2936.61  234.48
   0   2   6 3155.08  234.48
   0  -2  -6 3252.67  234.68
  -1  -2  -6   94.19    7.40
  -1   2   6   84.99    7.10
   1  -2   6   82.59    7.20
  -1   2   6  102.79    7.70
  -1  -2   6   88.79    7.40
   1  -2  -6   82.09    7.10
   1  -2  -6   88.19    7.40
   1   2   6   94.69    7.40
  -1   2  -6   80.79    7.20
   1   2   6   98.79    7.50
  -1   2  -6   89.89    7.10
   2  -2   6  637.14   48.50
  -2  -2  -6  613.34   48.00
  -2   2   6  659.83   47.60
   2   2   6  642.04   48.00
   2  -2  -6  709.53   48.70
   2  -2  -6  642.74   47.60
  -2   2  -6  631.84   47.60
  -2   2  -6  605.14   47.90
   2   2   6  667.23   48.10
  -2  -2   6  646.64   48.00
   3  -2   6    7.70    1.50
  -3   2   6    5.70    1.20
   3  -2   6    3.60    1.10
  -3   2  -6    6.60    1.10
   3   2   6    3.60    1.30
   3  -2  -6    5.10    0.90
   3   2   6    5.60    1.30
   4  -2  -6  365.16   28.30
   4   2   6  395.36   28.90
   5  -2   6   70.79    5.30
  -5   2  -6   64.39    5.30
   5   2   6   56.79    5.70
   5   2   6   50.19    6.70
   5  -2  -6   61.79    5.30
   6  -2   6 1290.07   90.79
   6  -2   6 1204.58   91.39
   6   2   6 1336.67   92.09
   6   2   6 1106.59   91.39
   7  -2   6    3.60    1.10
   7   2  -6    2.20    1.70
   7  -2   6    3.40    1.50
   7   2  -6    5.40    2.40
   7   2   6    3.80    2.30
   7   2   6    4.00    1.40
   8   2  -6   38.10    5.50
   8   2   6   48.00    5.20
   0  -3  -6    1.40    0.70
   0   3   6    1.70    1.00
   0   3  -6    0.70    0.70
   0  -3   6    1.80    1.00
   0  -3  -6    1.80    0.80
   0   3   6    1.00    0.70
  -1  -3  -6   21.30    2.40
  -1   3   6   18.70    2.00
  -1   3   6   21.70    2.70
  -1  -3  -6   16.00    2.20
   1  -3   6   20.40    2.40
  -1   3  -6   16.80    2.20
  -1  -3   6   20.60    2.50
   1  -3  -6   16.50    2.10
   1  -3  -6   19.40    2.30
   1   3   6   24.50    2.60
   1   3   6   19.70    2.40
  -2   3   6 3648.54  249.58
   2  -3   6 3289.67  248.98
  -2   3   6 3468.15  248.68
  -2  -3   6 3412.16  249.28
  -2   3  -6 3567.04  248.68
   2  -3  -6 3234.48  248.68
   2   3   6 3336.07  249.28
   2   3   6 3510.85  249.38
  -2   3  -6 3151.08  248.98
   3  -3   6   67.29    5.90
  -3   3   6   75.59    5.70
   3   3   6   68.19    6.20
   3  -3  -6   67.99    5.50
   3   3   6   66.19    6.30
   4  -3   6  467.45   34.40
   4   3   6  422.56   34.60
   4   3   6  468.25   34.90
   4  -3  -6  469.05   33.80
   5  -3   6    3.70    1.20
   5   3   6   10.70    2.40
   5  -3  -6    7.20    1.20
   5   3   6    6.40    1.70
   6  -3   6   38.90    3.80
   6   3  -6   28.50    6.40
   6   3   6   39.50    4.50
   6  -3  -6   25.60    3.60
   7   3  -6   51.29    5.60
   7  -3   6   36.30    4.30
  -7  -3  -6   45.20    8.00
   7   3  -6   37.70    6.60
   7   3   6   47.60    4.80
   7   3   6   40.60    5.10
   7  -3  -6   35.80    4.00
   8   3  -6  527.25   40.10
  -8  -3  -6  476.35   41.10
   8  -3   6  500.95   38.60
   8   3   6  499.85   39.50
   8   3   6  528.05   39.20
   0  -4   6 2463.55  188.38
   0   4   6 2627.64  188.68
   0  -4  -6 2546.85  188.48
   0   4   6 2640.74  188.28
   1  -4   6  298.97   21.80
  -1  -4  -6  276.07   21.90
  -1   4   6  296.17   21.50
  -1   4   6  290.87   22.10
  -1  -4   6  293.07   22.00
  -1   4  -6  259.67   22.00
   1   4   6  292.27   21.90
   1  -4  -6  286.47   21.60
   1   4   6  283.87   22.10
   2  -4   6  599.64   43.80
  -2   4   6  607.84   43.60
  -2   4   6  547.65   44.20
   2   4   6  528.05   44.10
   2   4   6  649.24   44.30
   2  -4  -6  617.44   43.60
  -2   4  -6  574.24   43.40
   3  -4   6    1.90    1.00
   3   4   6    0.40    1.00
   3   4   6    1.80    1.10
   4  -4   6  197.68   15.90
   4   4   6  194.08   16.60
   4   4   6  227.58   16.60
   5  -4   6    5.30    1.30
   5   4  -6    8.40    2.30
   5   4   6    6.30    1.80
   5   4   6    6.10    1.90
   6   4  -6  884.71   69.99
  -6  -4  -6  881.51   70.79
   6   4  -6  912.81   67.19
   6  -4   6  817.82   65.79
   6   4   6  955.80   66.99
   6   4   6  874.21   66.49
  -7  -4  -6    1.60    3.90
   7   4  -6    0.70    3.50
   7  -4   6    0.30    1.20
   7   4   6   -0.30    1.40
  -8  -4  -6   51.19    9.00
   8  -4   6   51.79    5.40
   8   4   6   47.40    6.30
   0   5   6    1.20    0.80
   0  -5  -6    1.40    0.80
   0   5   6    1.20    1.00
   0  -5   6    0.30    0.80
   1  -5   6   49.99    4.80
  -1   5   6   47.40    5.00
   1  -5  -6   61.09    4.70
  -1  -5   6   52.89    5.20
   1   5   6   45.90    5.00
   1   5   6   57.59    5.00
   2  -5   6 1576.34  116.49
  -2   5   6 1633.34  116.99
   2   5   6 1547.45  116.79
   2   5   6 1505.75  116.89
   2  -5  -6 1655.03  116.19
  -3   5   6   61.09    5.70
   3   5  -6   55.19    5.70
   3  -5   6   55.89    5.10
   3   5   6   54.19    5.60
   3   5   6   58.89    5.70
   4   5  -6  550.64   43.50
   4  -5   6  555.34   42.40
   4   5   6  638.44   43.50
   4   5   6  536.35   43.10
   5   5  -6    4.60    1.60
   5  -5   6    4.50    1.30
   5   5  -6    2.50    3.50
   5   5   6    3.30    1.70
   5   5   6    4.60    1.60
  -6  -5  -6   17.30    6.00
   6   5  -6   20.70    6.00
   6  -5   6   36.80    3.70
   6  -5  -6   19.90    5.50
   6   5   6   27.70    4.60
   7   5  -6    9.30    3.20
   7   5  -6    3.60    4.90
   7  -5   6    5.90    1.70
   7   5   6    6.60    2.10
   0   6   6  771.22   59.59
   0  -6   6  777.12   59.39
   0   6   6  828.52   59.19
   0   6  -6  813.32   59.29
   1  -6   6    3.00    1.20
   1   6  -6    3.90    1.10
  -1   6   6    4.60    1.50
   1   6   6    3.40    1.20
  -1   6  -6    4.40    1.00
  -2   6   6  194.98   16.70
   2   6  -6  206.68   17.00
   2  -6   6  222.08   16.50
   2   6   6  196.98   16.90
   2   6   6  235.28   17.00
   3   6  -6   16.80    3.00
   3  -6   6   16.40    2.40
  -3   6   6   17.00    2.90
   3   6   6   16.80    2.90
   3   6   6   14.30    2.80
   3  -6  -6   16.30    5.70
   4   6  -6  428.46   30.80
   4   6  -6  370.46   35.60
   4  -6   6  371.86   29.40
   4  -6  -6  333.47   33.90
   4   6   6  408.16   30.60
   4   6   6  415.06   30.50
   5   6  -6  102.89   13.60
   5  -6   6   77.09    7.40
   5   6  -6   87.19    8.50
  -5  -6  -6   81.19   13.40
   5   6   6   87.09    8.40
   5   6   6  105.79    8.70
   6   6  -6  759.82   60.39
   6   6  -6  743.63   63.69
  -6  -6  -6  808.62   65.19
   6   6   6  730.13   59.19
  -6   6  -6  922.51   69.89
   6   6   6  790.52   60.59
   7   6  -6   20.50    4.20
   7  -6   6   15.70    2.60
  -7  -6  -6   16.40    7.50
   7   6  -6   21.00    6.90
   7   6   6   19.50    3.80
   7   6   6   15.20    3.50
   0   7  -6    0.10    0.90
   0   7   6   -0.50    0.90
   0   7   6    0.30    1.30
   1  -7   6   52.89    5.30
  -1   7   6   50.49    5.80
   1   7  -6   56.99    5.50
  -1   7  -6   63.29    5.10
   1   7   6   53.69    5.70
   1   7   6   57.29    5.40
   2  -7   6  614.84   45.70
  -2  -7  -6  665.93   53.09
   2   7  -6  581.34   46.30
   2   7   6  607.74   46.10
   2  -7  -6  671.03   52.59
   2   7   6  572.84   46.20
  -3   7   6   34.40    4.30
   3  -7   6   31.70    3.50
   3   7  -6   34.80    4.20
   3   7  -6   25.50    7.10
  -3  -7  -6   34.60   10.10
   3   7   6   28.10    4.00
   3  -7  -6   28.90    7.80
   3   7   6   36.60    4.30
  -4  -7  -6  766.02   61.09
   4   7  -6  671.43   53.49
   4   7  -6  753.52   60.39
   4  -7   6  618.94   52.19
   4   7   6  784.22   53.69
   4   7   6  684.23   53.29
   5   7  -6    0.90    4.40
  -5  -7  -6    4.10    4.60
   5   7  -6    1.20    1.40
  -5   7  -6   -6.90    3.20
   5   7   6    1.40    1.80
   6  -7   6   20.00    3.10
  -6  -7  -6    7.20    7.90
   6   7  -6   10.70    6.20
   6   7   6   18.70    3.90
   7   7  -6    4.80    1.90
  -7  -7  -6    4.70    7.40
   7  -7   6    1.10    1.40
   7   7   6    1.90    2.20
   7   7   6    3.40    2.00
   0   8   6  419.56   31.90
   0   8  -6  410.56   31.50
   0   8   6  410.56   31.30
   0  -8  -6  417.96   38.60
  -1   8   6   29.50    3.90
   1   8  -6   25.60    3.60
   1   8  -6   21.60    6.90
  -1  -8  -6   31.60    8.60
  -1   8   6   35.20    3.30
   1   8   6   30.10    3.60
   1  -8  -6   37.90    8.70
   1   8   6   27.70    3.90
  -1   8  -6   34.20    3.40
  -2  -8  -6  231.08   24.00
  -2   8   6  179.68   16.50
   2   8  -6  182.48   16.60
   2   8  -6  244.28   24.20
   2  -8   6  185.88   16.20
   2   8   6  200.48   16.80
   2   8   6  230.98   16.80
  -2   8  -6  259.07   24.80
   2  -8  -6  242.28   23.50
   3  -8   6   56.89    5.90
  -3  -8  -6   67.39   12.50
  -3   8   6   58.19    6.40
   3   8  -6   77.19    6.90
   3   8  -6   42.50    9.50
  -3   8  -6   62.99   11.80
   3   8   6   79.19    6.90
   3  -8  -6   63.89   11.30
   3   8   6   67.39    6.70
   4   8  -6  181.58   14.50
   4  -8   6  154.68   13.00
   4   8  -6  140.59   19.20
  -4  -8  -6  151.98   20.30
  -4   8  -6  157.58   19.80
   4   8   6  179.18   14.30
   4   8   6  164.48   14.20
   4  -8  -6  157.48   19.50
   5   8  -6    9.10    5.30
   5  -8   6    6.90    1.80
  -5  -8  -6    4.50    6.40
   5   8   6    7.30    3.70
   6  -8   6  484.25   36.60
   6   8  -6  505.35   44.50
  -6  -8  -6  568.84   47.20
   6   8  -6  463.85   38.40
   6   8   6  461.45   38.20
   0   9  -6   -1.60    1.30
   0   9   6   -2.20    1.30
   0   9  -6   -3.70    7.20
   0  -9  -6   -2.40    4.80
   0   9   6    1.00    1.60
   1   9  -6    3.60    5.40
  -1  -9  -6    5.00    5.00
  -1   9   6    7.20    1.60
  -1   9   6    5.50    2.30
   1   9  -6    6.00    2.00
   1   9   6    5.50    2.00
   1   9   6    6.10    1.90
  -1   9  -6    9.10    1.80
  -1   9  -6   12.10    6.70
   1  -9  -6    2.40    4.70
  -2   9   6  470.95   40.10
   2   9  -6  600.24   49.60
  -2  -9  -6  556.34   48.60
   2   9  -6  510.75   40.30
   2   9   6  507.25   40.50
  -2   9  -6  518.65   48.30
   2  -9  -6  557.24   48.00
   2   9   6  554.84   40.30
   3   9  -6   21.80    7.40
  -3  -9  -6    7.60    6.30
  -3   9   6   15.60    3.20
   3   9  -6   15.40    3.20
  -3   9  -6    8.50    5.70
   3   9   6   14.30    3.20
   3   9   6   21.70    3.60
   3  -9  -6   16.00    9.50
   4   9  -6  197.38   22.30
  -4  -9  -6  189.58   26.00
   4  -9   6  158.28   13.60
   4   9  -6  169.08   14.80
  -4   9   6  148.49   14.30
   4   9   6  164.88   17.20
   4  -9  -6  224.78   23.80
  -4   9  -6  194.08   21.70
   5   9  -6    3.40    2.00
   5  -9   6    2.80    1.80
   5   9  -6    1.10    5.40
   5   9   6    3.90    2.10
   5   9   6    3.60    2.30
   0  10  -6  465.95   37.90
   0  10   6  479.25   38.10
   0  10   6  528.15   37.60
   0  10  -6  510.55   47.10
   1  10  -6   14.70    2.80
  -1  10   6   14.80    2.30
  -1  10   6   10.00    3.00
   1  10  -6   17.50    9.10
  -1 -10  -6    9.20    6.20
   1  10   6   18.00    3.10
  -1  10  -6   15.90    7.30
  -1  10  -6   17.30    2.60
   1  10   6   14.70    3.30
   1 -10  -6    7.80    5.70
   2  10  -6   76.79    8.20
  -2  10   6   71.59    8.00
   2  10  -6   98.29   18.40
  -2 -10  -6   81.69   16.50
   2  10   6   92.89    8.30
  -2  10  -6  107.59   19.10
   2  10   6   81.39    8.30
  -3  10   6    1.70    2.10
   3  10  -6    2.20    6.10
  -3 -10  -6    5.60    7.30
   3  10  -6    3.70    1.70
   3 -10  -6    2.20    5.40
  -3  10  -6    1.80    5.50
   3  10   6    5.40    2.20
  -4 -10  -6   87.09   17.70
  -4  10   6   55.79    7.00
   4  10  -6   67.39    7.20
   4  10  -6   62.29   14.00
   4  10   6   58.79    7.10
   4  10   6   75.89    7.50
   5  10  -6   16.20    9.00
  -5 -10  -6    8.90   11.10
   5  10  -6    8.80    2.90
   5  10   6   13.40    3.00
   5  10   6    9.60    2.80
   0  11   6    0.60    2.00
   0  11  -6    1.70    7.10
   0 -11  -6    2.90    6.30
   0  11  -6   -1.10    1.70
   0  11   6   -1.20    1.60
  -1 -11  -6    1.50    7.10
   1  11  -6   13.40    8.20
  -1  11   6   11.10    2.80
  -1  11   6    6.90    1.70
   1  11  -6    9.30    2.20
   1  11   6    9.40    3.00
   1  11   6    8.80    2.40
  -1  11  -6    8.30    2.10
  -1  11  -6   19.90   10.10
  -2  11   6  213.48   19.20
   2  11  -6  258.07   29.10
   2  11  -6  243.98   19.40
   2  11   6  243.38   19.20
   2 -11  -6  269.67   29.80
   2  11   6  210.88   19.30
  -2  11  -6  247.88   28.50
   3  11  -6   17.50    5.50
  -3  11   6   13.30    3.30
  -3 -11  -6    7.50    9.40
   3  11  -6    7.60    8.30
   3  11   6   10.40    4.10
   3  11   6   10.10    3.10
  -4  11   6   83.49    9.30
   4  11  -6   96.99    9.80
   4  11   6  108.89   10.00
   0  12  -6  165.78   13.80
   0  12  -6  155.28   23.80
   0  12   6  176.18   13.60
   0  12   6  147.59   15.30
  -1 -12  -6   -5.80    9.30
   1  12  -6    6.20    2.70
   1  12  -6   -1.10    9.60
  -1  12   6    3.80    2.20
  -1  12   6    4.70    1.70
   1 -12  -6    9.20    9.30
  -1  12  -6   -8.10    8.00
   1  12   6    6.30    2.90
   1  12   6    6.10    2.10
  -2 -12  -6   36.40   12.40
   2  12  -6   39.80   11.60
   2  12  -6   27.20    5.00
  -2  12   6   27.50    4.70
   2  12   6   29.50    5.10
   0   0  -7    2.80    0.90
   0   0   7    3.40    1.00
   0   0   7    3.60    1.30
   1   0  -7  300.47   24.40
  -1   0   7  301.67   24.40
   1   0  -7  330.57   24.80
   1   0   7  366.36   24.80
  -1   0  -7  329.47   24.50
  -2   0   7 2021.50  142.99
   2   0   7 1848.81  143.09
  -2   0  -7 2020.40  142.99
   2   0  -7 1900.01  142.89
   3   0   7   25.90    3.00
  -3   0  -7   25.70    2.80
   3   0  -7   27.20    2.80
   3   0   7   25.50    2.70
  -3   0   7   26.30    3.10
   4   0   7 1060.59   88.09
  -4   0  -7 1218.58   87.39
   4   0   7 1259.07   87.29
   5   0   7   16.20    2.30
   5   0   7   24.50    3.20
   6   0   7   34.80    4.20
   7   0   7    4.80    2.00
   7   0   7    1.00    1.40
   8   0   7  570.04   43.20
   8   0  -7  573.04   44.60
   0   1   7 2750.82  205.98
   0  -1  -7 2960.70  206.28
   0   1  -7 2666.63  206.08
   0  -1  -7 2606.64  206.08
   0  -1   7 2767.62  206.08
   0   1  -7 3133.89  206.28
  -1  -1  -7   18.00    2.20
  -1   1   7   18.80    2.10
   1  -1   7   21.60    2.40
  -1  -1  -7   11.80    2.20
  -1   1   7   22.90    2.80
   1  -1   7   14.50    2.10
   1   1  -7   22.60    2.50
   1   1   7   19.00    2.40
  -1   1  -7   21.70    2.10
   1  -1  -7   17.70    2.10
   1   1   7   16.50    2.20
  -1  -1   7   19.60    2.60
   1  -1  -7   15.40    2.00
   2  -1   7  623.34   45.90
   2  -1   7  630.04   45.80
  -2  -1  -7  583.74   45.80
  -2   1   7  622.84   45.70
   2  -1  -7  609.44   45.60
   2   1   7  640.74   46.00
   2   1   7  644.34   46.00
  -2  -1   7  609.74   45.90
  -2   1  -7  580.74   45.60
  -3  -1  -7   95.99    7.80
  -3   1   7   92.79    7.70
   3   1   7   99.99    7.90
   3  -1  -7   83.09    7.40
  -3   1  -7  104.99    7.60
   3   1   7   81.09    7.90
   4  -1  -7  568.84   45.70
   4   1   7  666.23   46.20
   5  -1   7   54.69    5.60
   5  -1   7   65.39    5.20
   5   1   7   56.29    5.80
   5   1   7   48.60    5.30
  -5   1  -7   61.39    5.30
   6  -1   7 1200.28   87.29
   6  -1   7 1137.79   86.69
   6   1   7 1186.88   87.49
   7  -1   7   52.69    5.30
   7  -1   7   43.50    4.60
   7   1   7   51.79    5.70
   7   1   7   47.90    4.90
   8  -1   7   24.50    3.50
   8   1  -7   36.90    4.80
   8   1   7   28.70    3.90
   0  -2  -7   -0.30    0.50
   0   2  -7   -0.20    0.80
   0   2   7    0.50    0.60
   0   2   7   -0.30    0.70
   0  -2  -7    0.10    0.60
   0  -2   7    0.80    0.90
   0   2  -7    0.90    0.80
  -1   2   7   17.90    2.00
  -1   2   7    9.30    2.00
   1   2  -7   14.50    2.40
   1  -2   7   19.50    2.20
  -1  -2  -7   12.40    2.10
  -1  -2   7   15.80    2.10
  -1   2  -7   12.30    1.80
   1   2   7   11.50    2.10
   1  -2  -7   16.90    2.00
   1   2   7   19.00    2.20
   2  -2   7 2336.27  153.18
  -2   2   7 2013.00  152.88
   2  -2   7 2012.40  153.28
  -2   2  -7 2118.59  152.88
   2  -2  -7 2074.19  153.08
   2   2   7 2141.39  153.38
   2   2   7 1945.61  153.28
  -2  -2   7 2053.29  153.28
   3  -2   7   48.50    3.90
  -3   2   7   44.70    4.00
   3  -2   7   34.20    4.00
  -3   2  -7   44.50    3.80
   3   2   7   41.80    4.20
   3   2   7   39.50    4.30
   4  -2   7  909.11   62.49
   4  -2   7  806.22   62.89
   4  -2  -7  833.72   62.39
   4   2   7  880.31   63.29
   4   2   7  757.22   62.89
  -4   2  -7  890.61   62.59
   5  -2   7   49.80    4.50
   5  -2   7   52.59    5.10
   5  -2  -7   47.20    4.60
   5   2   7   68.49    7.50
   5   2   7   43.40    6.00
  -5   2  -7   56.29    4.60
   6  -2   7   42.10    4.60
   6   2   7   46.70    5.20
   7   2  -7   48.20    5.90
   7   2  -7   46.80    7.40
   7  -2   7   45.80    5.20
   7  -2   7   47.50    4.50
   7   2   7   48.30    5.20
   7  -2  -7   54.39    6.10
   7   2   7   61.39    6.00
   8  -2   7  505.15   38.00
  -8  -2  -7  440.06   40.20
   8   2  -7  512.15   39.20
   8   2   7  488.85   38.60
   8   2   7  525.35   38.20
   0  -3   7 1981.70  146.59
   0   3   7 2089.29  146.89
   0   3   7 2086.59  146.49
   0  -3  -7 1828.92  146.49
  -1   3   7  227.18   17.20
  -1   3   7  233.48   17.90
   1  -3   7  212.18   17.40
  -1   3  -7  245.38   17.40
   1   3   7  223.18   17.70
   1   3   7  234.78   17.60
  -1  -3   7  216.58   17.60
   2  -3   7  493.95   36.40
  -2   3   7  531.85   36.10
  -2   3   7  435.26   36.80
  -2   3  -7  479.15   36.10
   2  -3  -7  488.05   36.10
  -2  -3   7  489.55   36.70
   2   3   7  498.65   36.70
   2   3   7  468.15   36.70
  -3   3   7   82.19    6.10
   3  -3   7   76.19    6.30
   3   3   7   62.89    6.40
   3   3   7   72.29    7.20
  -3   3  -7   68.19    5.80
   3  -3  -7   74.49    5.90
   4  -3   7  269.97   21.80
   4   3   7  322.97   24.40
   4   3   7  281.77   22.30
   4  -3  -7  278.97   21.30
   5  -3   7   12.60    2.20
   5   3   7   18.50    3.20
   5   3   7   16.80    2.80
   6  -3   7 1084.89   76.69
   6   3   7 1070.19   77.09
   6  -3  -7  945.11   75.79
   7   3  -7   -6.90    2.90
   7  -3   7    0.50    1.00
   7   3   7   -2.20    1.50
   7  -3  -7    0.00    2.40
   7   3   7    1.90    1.40
  -8  -3  -7   46.30    8.80
   8  -3   7   43.20    5.20
   8  -3  -7   47.30    4.80
   8   3   7   58.89    6.40
   0   4   7    0.20    0.80
   0   4   7    0.00    0.80
   0  -4   7    0.70    0.90
   0  -4  -7    1.80    0.90
  -1   4   7   16.50    1.90
   1  -4   7   17.30    2.50
  -1  -4   7   13.90    2.30
  -1   4  -7   15.30    2.00
   1   4   7   18.90    2.40
   2  -4   7 2013.80  150.38
  -2   4   7 2000.40  150.88
  -2   4   7 2142.39  149.99
   2   4   7 1985.60  150.68
  -2   4  -7 2197.38  150.08
   2  -4  -7 1994.30  150.08
   2   4   7 1999.40  150.78
  -3   4   7   56.39    4.50
   3  -4   7   52.49    4.80
   3   4   7   52.99    5.50
   3   4   7   48.60    5.20
   3  -4  -7   49.00    4.40
   4  -4   7  340.47   25.20
   4   4   7  320.97   25.70
   5  -4   7    6.40    1.60
   5   4   7    5.40    1.70
   5   4   7   11.20    2.40
   6  -4   7   22.00    2.90
   6   4  -7   28.00    4.50
   6   4   7   15.00    3.40
   7   4  -7   47.00    5.90
   7  -4   7   46.10    5.00
   7   4  -7   41.20    7.90
  -7  -4  -7   35.80    9.10
   7   4   7   45.30    5.30
   7   4   7   59.79    6.30
   0  -5   7 1290.67   99.39
   0  -5  -7 1334.97   99.09
   0   5   7 1401.06   99.09
   0   5   7 1349.07   99.49
   1  -5   7   28.90    3.30
  -1   5   7   30.50    2.90
  -1   5   7   25.90    3.50
  -1   5  -7   31.80    3.20
   1   5   7   28.50    3.40
  -1  -5   7   25.10    3.50
   1   5   7   29.70    3.30
   1  -5  -7   27.60    3.10
  -2   5   7  258.37   17.60
  -2   5   7  203.18   18.40
   2  -5   7  229.38   18.00
  -2   5  -7  229.08   17.60
   2   5   7  245.48   18.50
   2   5   7  204.68   18.30
   2  -5  -7  255.77   17.80
   3  -5   7   28.80    3.30
  -3   5   7   30.20    6.20
   3   5   7   32.40    3.80
   3   5   7   27.90    3.60
   4  -5   7  346.87   29.60
   4   5  -7  434.56   31.00
   4   5   7  429.36   30.50
   4   5   7  373.86   30.40
   5  -5   7   49.10    5.00
   5   5  -7   51.59    5.90
   5   5   7   51.69    5.50
   5   5   7   55.89    5.90
   6   5  -7  738.83   59.29
   6   5  -7  801.22   63.89
   6  -5   7  744.43   57.89
  -6  -5  -7  779.72   64.19
   6   5   7  751.42   58.79
   6   5   7  836.92   59.29
   6  -5  -7  821.62   69.19
  -7  -5  -7    6.70    6.10
   7   5  -7    7.80    2.70
   7  -5   7    8.00    2.30
   7   5   7   12.10    3.30
   0   6   7    1.70    1.20
   0   6   7    1.40    0.90
  -1   6   7   16.20    2.90
   1  -6   7   13.30    2.40
  -1   6   7   16.50    2.00
  -1   6  -7   19.70    2.20
   1   6   7   14.60    2.70
   1   6   7   13.60    2.40
   1  -6  -7   15.10    2.30
  -2   6   7  594.14   42.30
   2  -6   7  542.35   42.80
   2   6  -7  552.04   43.40
  -2   6   7  541.05   43.30
   2   6   7  560.74   43.20
   2   6   7  555.84   43.40
  -2   6  -7  610.14   42.40
   2  -6  -7  609.04   42.50
   3  -6   7   32.10    3.80
   3   6  -7   42.80    4.60
  -3   6   7   30.40    4.30
   3   6   7   41.00    4.50
   3   6   7   40.10    4.40
   4   6  -7  824.82   63.19
   4  -6  -7  853.21   68.69
   5   6  -7    5.60    4.60
  -5  -6  -7   -0.10    3.50
   5  -6   7    3.40    1.40
   5   6  -7    1.90    1.30
   5   6   7    3.60    1.50
   5   6   7    0.30    1.50
  -6  -6  -7   24.20    8.30
   6   6  -7   47.20    5.40
   6  -6   7   37.80    3.90
   6   6  -7   17.70    6.60
   6   6   7   26.70    4.70
   7  -6   7    9.00    2.20
   7   6  -7    2.40    4.90
   7   6  -7    8.00    2.80
  -7  -6  -7    3.90    7.10
   7   6   7    7.40    2.60
   7   6   7   10.40    2.70
   0   7   7  701.43   54.99
   0   7   7  771.52   54.49
   0   7  -7  748.23   54.69
   0  -7   7  702.93   54.79
   1  -7   7    4.00    1.60
   1   7  -7    5.60    1.70
  -1   7   7    5.50    2.00
  -1   7   7    4.60    1.20
   1   7   7    5.30    1.70
  -1   7  -7    9.10    1.70
   1   7   7    6.60    2.00
   2   7  -7  174.28   15.40
  -2   7   7  166.68   15.30
  -2   7   7  204.38   14.40
   2   7   7  186.88   15.50
   2   7   7  203.68   15.40
   3   7  -7   55.39    5.80
  -3   7   7   52.69    5.70
   3   7   7   50.79    5.70
   3  -7  -7   50.89   10.80
   3   7   7   52.39    5.70
   4   7  -7  264.87   19.30
   4   7  -7  201.18   24.00
   4  -7   7  203.58   17.90
  -4  -7  -7  232.78   25.10
   4   7   7  242.38   18.80
   4   7   7  219.68   18.60
   5   7  -7   27.10    9.00
   5  -7   7   26.10    3.60
   5   7  -7   33.30    4.50
  -5  -7  -7   26.80    9.00
   5  -7  -7   37.60    8.10
   5   7   7   32.30    4.90
   5   7   7   33.10    4.90
   6  -7   7  535.25   40.30
  -6  -7  -7  584.74   50.79
   6   7  -7  540.65   47.40
   6   7  -7  507.55   41.80
   6   7   7  572.54   41.90
   6   7   7  500.65   41.40
   0   8   7   -0.30    1.10
   0   8   7   -0.90    1.30
   0   8  -7    0.00    1.10
   1   8  -7   11.60    2.40
   1  -8   7    7.20    2.30
  -1  -8  -7    3.60    4.20
  -1   8   7   11.40    2.60
   1  -8  -7   13.90    5.70
   1   8   7   14.70    3.10
  -1   8  -7   15.40    2.20
   1   8   7   14.00    2.60
  -2   8   7  713.93   54.69
   2   8  -7  719.53   54.69
   2  -8   7  694.53   54.09
   2   8   7  711.93   54.79
   2  -8  -7  756.52   61.89
   2   8   7  759.82   54.59
  -3  -8  -7   25.50    7.80
   3   8  -7    9.00    6.50
  -3   8   7   20.50    3.80
   3   8  -7   21.60    3.70
   3  -8   7   17.40    3.00
   3   8   7   27.40    3.90
   3   8   7   23.10    3.80
   4  -8   7  161.38   14.30
   4   8  -7  172.28   15.50
  -4  -8  -7  204.68   23.50
   4   8  -7  201.88   22.70
   4   8   7  199.88   15.60
   4  -8  -7  208.58   21.70
   4   8   7  166.68   15.30
  -4   8  -7  203.88   22.50
  -5  -8  -7    0.40    5.80
   5   8  -7    7.40    6.00
   5   8  -7    2.90    1.80
   5  -8   7    2.10    1.70
   5   8   7   -0.60    1.50
   5   8   7    4.60    2.20
   6   8  -7   22.80    4.60
   6  -8   7   15.00    2.60
  -6  -8  -7   -2.30    7.60
   6   8   7   19.80    3.70
   6   8   7    8.90    3.00
   0   9  -7  469.65   37.50
   0   9   7  501.35   38.20
   0  -9  -7  528.55   46.60
   0   9   7  497.35   37.40
   0   9  -7  503.65   46.60
  -1   9   7   24.60    3.90
   1   9  -7   17.00    7.30
   1   9  -7   21.10    3.50
  -1  -9  -7   19.50    7.60
  -1   9   7   19.60    2.80
   1  -9  -7   10.40    7.20
  -1   9  -7   23.00    2.90
   1   9   7   18.80    3.50
   1   9   7   21.60    3.40
  -1   9  -7   28.80    8.90
  -2   9   7  111.69   10.70
   2   9  -7  150.18   19.60
  -2  -9  -7  137.99   19.60
   2   9  -7  109.49   10.70
   2  -9  -7  162.58   19.40
   2   9   7  128.69   10.70
   2   9   7  113.19   10.90
  -3  -9  -7    0.60    6.70
   3  -9   7    0.00    1.40
   3   9  -7   -5.10    4.20
  -3   9   7   -0.50    1.60
   3   9  -7   -0.70    1.30
   3   9   7   -1.20    1.50
  -3   9  -7   -8.50    5.10
   3  -9  -7    0.70    4.50
   3   9   7   -0.10    1.30
   4  -9   7   79.19    7.00
  -4   9   7   75.39    7.70
   4   9  -7   70.59    8.50
  -4  -9  -7   70.89   15.60
   4   9  -7   67.69   14.90
   4   9   7   81.49    7.70
   4   9   7   66.19    7.90
   5   9  -7   10.70    7.10
   5   9  -7    9.70    3.10
   5  -9   7   13.00    2.50
  -5  -9  -7    5.60    8.50
   5   9   7   13.50    3.40
   5   9   7   14.00    3.00
   0  10   7   -3.10    1.20
   0  10  -7   -0.70    1.50
   0  10   7    2.30    1.60
   0 -10  -7   -8.60    5.90
   0  10  -7    6.10    9.10
   1  10  -7    7.40    5.90
  -1  10   7    3.20    2.40
   1  10  -7    3.80    2.00
  -1 -10  -7   -4.30    6.50
  -1  10   7   -0.40    1.20
   1  10   7    2.00    2.00
   1 -10  -7    9.50    5.80
  -1  10  -7    2.90    1.50
  -1  10  -7    5.10    6.00
   2  10  -7  303.87   33.00
   2  10  -7  295.57   24.40
  -2  10   7  290.57   24.50
  -2 -10  -7  320.67   33.90
   2 -10  -7  315.97   32.70
   2  10   7  320.87   24.30
   2  10   7  301.67   24.70
  -2  10  -7  317.97   33.60
   3  10  -7   23.20    4.00
  -3  10   7   13.10    3.50
  -3 -10  -7   24.40   11.20
   3  10  -7   13.30    7.40
   3  10   7   21.40    4.30
  -3  10  -7   11.50    6.70
   3  10   7   19.10    3.50
  -4 -10  -7  181.68   23.50
  -4  10   7  115.19   11.70
   4  10  -7  136.59   12.00
   4  10   7  115.79   11.60
   0  11  -7  270.57   21.90
   0  11  -7  314.27   33.20
   0  11   7  291.27   21.70
   0  11   7  248.68   22.40
   0 -11  -7  297.27   32.70
   1  11  -7   11.10    7.90
  -1  11   7   11.70    2.30
  -1  11   7   12.40    3.00
   1  11  -7   13.60    2.90
  -1 -11  -7   12.20    9.10
  -1  11  -7   16.70    2.80
  -1  11  -7   12.60   11.80
   1  11   7   12.10    3.00
   1  11   7   15.10    3.10
   1 -11  -7   13.50   10.50
   2  11  -7   24.70    4.60
   2  11  -7   28.30   12.20
  -2 -11  -7   35.00   12.20
  -2  11   7   34.30    5.20
  -2  11  -7   59.59   14.50
   2  11   7   37.60    5.50
   2 -11  -7   54.29   13.20
   3  11  -7    3.60    2.20
   3  11  -7    9.40    9.20
  -3 -11  -7   -4.90    9.70
  -3  11   7    4.60    2.60
   3  11   7    2.90    2.50
   3  11   7    6.70    2.50
   0  12  -7   -0.90    9.10
   0 -12  -7   -1.10   11.10
   0  12   7    0.20    1.70
   0  12   7    1.20    2.10
   0  12  -7   -4.20    1.80
  -1  12   7    3.90    2.40
   1  12  -7    0.20    2.20
   1  12   7    6.30    2.70
   0   0   8 4237.48  302.37
   0   0   8 3811.82  301.77
   0   0  -8 4336.07  303.67
  -1   0  -8    7.10    1.40
   1   0   8    3.60    1.10
  -1   0   8    3.20    1.20
   1   0   8    5.80    1.50
  -2   0  -8  474.65   36.40
  -2   0   8  489.55   36.50
   2   0   8  522.95   36.70
   2   0   8  461.85   36.60
  -3   0  -8  237.18   18.20
   3   0   8  209.88   18.30
   3   0   8  260.57   18.40
  -3   0   8  237.18   18.30
   4   0   8  563.24   45.40
   4   0   8  642.44   45.20
   5   0   8   51.89    4.90
   5   0   8   49.30    5.30
   6   0   8  590.64   46.70
   6   0   8  658.63   47.40
   7   0   8   47.40    5.10
   7   0   8   35.90    4.30
   8   0   8   25.00    3.80
   0  -1   8    2.10    1.00
   0   1   8    0.10    0.70
   0   1   8    1.30    1.10
   1  -1   8  144.09   11.80
   1  -1   8  163.88   12.10
  -1   1   8  150.58   12.40
  -1   1   8  145.39   11.70
   1   1   8  150.68   12.00
   1  -1  -8  147.79   11.70
   1   1   8  143.19   11.80
  -1   1  -8  149.19   11.80
  -1  -1   8  148.29   11.80
   2  -1   8 1736.13  137.89
  -2   1   8 1906.91  137.79
   2   1   8 2066.19  138.19
   2   1   8 1745.53  137.89
  -2  -1   8 1872.11  137.99
  -2   1  -8 2010.50  137.79
   2  -1  -8 1798.62  137.69
   3  -1   8   83.89    6.40
  -3   1   8   70.19    6.30
  -3   1  -8   71.09    6.20
  -3  -1   8   70.39    6.60
   3   1   8   69.89    6.40
   4  -1   8  795.12   62.29
   4  -1   8  912.81   61.99
   4   1   8  755.92   62.09
   4   1   8  856.11   62.49
  -4   1  -8  857.91   61.99
   5  -1   8   -0.20    0.80
   5  -1   8    0.10    0.90
   5   1   8   -0.90    0.80
   5   1   8    0.50    1.20
  -5   1  -8    0.90    0.90
   6   1   8   89.89    8.00
   7  -1   8   11.00    2.00
   7  -1   8    6.80    2.30
   7   1   8   11.20    2.30
   8   1  -8  516.15   41.80
   8  -1   8  574.54   41.50
   8   1   8  504.65   41.00
   8   1   8  531.65   40.60
   0   2   8 1643.34  124.49
   0   2  -8 1844.42  124.39
   0   2   8 1683.23  124.09
   0  -2   8 1587.74  124.19
   1  -2   8  126.79   10.70
  -1   2   8  129.39   11.20
  -1   2   8  135.19   10.50
  -1  -2   8  139.39   10.80
  -1   2  -8  143.09   10.70
   1   2   8  137.89   10.80
   1  -2  -8  125.79   10.50
   1   2   8  129.09   11.00
   2  -2   8  453.35   35.70
  -2   2   8  482.75   35.30
   2  -2   8  514.25   35.60
   2  -2  -8  470.25   35.30
  -2   2  -8  500.15   36.30
   2   2   8  423.46   35.60
  -2  -2   8  471.25   35.70
   2   2   8  469.45   35.70
   3  -2   8   14.60    2.00
  -3   2   8   10.10    1.70
   3  -2   8    8.20    1.70
  -3   2  -8   11.40    1.80
   3   2   8    8.10    1.80
   3   2   8    7.90    2.00
   3  -2  -8    9.20    1.60
   4  -2   8  471.15   36.90
   4   2   8  477.45   37.00
   4   2   8  502.15   37.30
  -4   2  -8  556.54   36.70
   4  -2  -8  438.86   36.30
   5  -2   8   21.90    2.40
  -5   2  -8   22.20    3.80
   5   2   8   19.00    3.50
   5   2   8   17.20    3.00
   6  -2   8 1066.69   78.29
   6  -2   8 1065.59   77.59
   6   2   8 1011.00   78.29
  -6   2  -8 1022.40   77.69
   6   2   8 1093.49   78.79
   7  -2   8    2.70    1.50
   7  -2   8    2.40    1.10
   7   2   8    4.30    1.70
   8  -2   8   40.10    7.90
   8   2   8   45.30    5.80
   0   3  -8    1.50    0.90
   0  -3   8    0.50    0.80
   0   3   8    0.50    1.00
   0   3   8    0.20    0.70
   1  -3   8    1.50    1.10
  -1   3   8    2.20    1.00
  -1   3   8    2.30    1.30
   1   3   8    1.20    1.00
  -1  -3   8    3.50    1.20
   1  -3  -8    1.80    1.00
   1   3   8    1.00    1.00
  -2   3   8 2143.39  156.38
  -2   3   8 2203.08  155.48
   2  -3   8 2037.90  155.68
   2  -3  -8 1964.10  155.38
   2   3   8 2085.39  156.08
   2   3   8 2161.18  155.98
  -2  -3   8 2133.39  155.98
  -2   3  -8 2235.48  155.48
  -3   3   8  111.99    8.20
   3  -3   8   93.89    8.40
   3  -3  -8   88.19    7.90
   3   3   8  102.59    9.00
  -3   3  -8  109.29    8.10
   3   3   8   98.79    8.80
   4  -3   8  487.85   37.70
   4  -3  -8  490.05   37.20
   4   3   8  462.45   37.90
  -4   3  -8  523.65   37.30
   4   3   8  540.05   38.30
   5  -3   8    0.60    1.20
   5   3   8    0.10    1.10
   5  -3  -8    0.80    0.90
   5   3   8    2.60    1.60
   6  -3   8   37.00    4.20
   7   3  -8   58.29    6.80
   7  -3   8   49.60    5.70
   7   3  -8   61.19    9.10
   7   3   8   57.79    6.50
   7   3   8   55.59    5.90
   0   4   8 1001.30   80.29
   0  -4   8 1078.09   80.09
   0   4   8 1165.78   79.99
  -1   4   8   63.19    5.40
   1  -4   8   61.39    5.80
  -1   4   8   60.09    6.00
   1  -4  -8   56.69    5.30
  -1   4  -8   70.99    5.60
   1   4   8   58.79    5.80
   1   4   8   62.29    5.80
  -1  -4   8   64.19    5.90
   2  -4   8  246.68   19.10
  -2   4   8  271.47   18.70
   2  -4  -8  248.58   18.80
   2   4   8  225.88   19.90
  -2   4  -8  236.08   18.60
  -2  -4   8  243.78   19.40
   3  -4   8  117.69   11.20
  -3   4   8  138.49   10.50
   3   4   8  140.89   11.30
   3  -4  -8  151.68   11.20
   3   4   8  116.69   11.10
   4   4   8  531.65   39.30
   4   4   8  497.85   39.30
   5  -4   8   66.49    6.50
   5   4   8   71.39    7.10
   5   4   8   78.49    7.10
   6   4  -8  951.20   72.49
   6  -4   8  929.01   70.99
   6   4   8 1032.80   72.19
   6   4   8  912.21   71.59
   7   4  -8    4.60    4.20
   7  -4   8    3.40    1.60
   7   4  -8    3.60    1.90
  -7  -4  -8   -3.10    4.60
   7   4   8    1.70    1.80
   7   4   8   -0.60    1.40
   0   5   8    0.40    0.80
   0   5   8    0.50    1.20
  -1   5   8   14.00    2.80
  -1   5   8   14.50    2.10
   1  -5   8   18.50    3.40
   1   5   8   15.50    2.70
   1  -5  -8   15.70    2.30
  -1  -5   8   11.90    2.50
   1   5   8   17.90    2.80
  -1   5  -8   22.00    2.40
  -2   5   8  927.51   72.69
  -2   5   8 1006.30   71.69
  -2   5  -8  996.60   71.79
   2   5   8  917.51   72.59
   2   5   8  990.20   72.49
   2  -5  -8  998.50   71.99
  -3   5   8   64.59    6.30
   3  -5   8   53.39    5.60
  -3   5   8   59.59    4.80
   3   5   8   63.19    5.90
   3   5   8   57.99    5.90
   3  -5  -8   48.50    4.80
   4  -5   8  680.13   53.69
   4   5   8  789.32   54.69
   4   5   8  699.23   54.39
   5  -5   8    6.70    2.00
   5   5  -8    3.70    1.70
   5   5   8    8.10    2.60
   5   5   8    2.10    1.30
   6  -5   8   39.70    4.60
   6   5  -8   40.70    5.40
   6   5   8   38.30    7.00
   6   5   8   50.49    5.40
  -7  -5  -8   19.70    7.40
   7   5  -8   31.20    5.30
   7  -5   8   28.10    3.90
   7   5   8   26.70    4.50
   7   5   8   33.00    5.30
   0   6   8 1106.99   83.49
   0   6   8 1163.78   82.89
   0  -6   8 1091.69   83.29
   1  -6   8   53.89    5.60
  -1   6   8   63.59    5.20
  -1   6   8   57.49    6.00
  -1   6  -8   64.39    5.50
  -1  -6   8   51.19    5.80
   1  -6  -8   54.09    5.30
   1   6   8   62.29    6.00
   1   6   8   61.99    5.70
  -2   6   8  177.98   16.60
  -2   6   8  226.18   15.70
   2  -6   8  204.48   16.20
  -2   6  -8  200.38   15.70
   2   6   8  191.38   16.60
   2   6   8  225.38   16.60
  -3   6   8  126.69   11.70
   3  -6   8  124.49   11.00
   3   6  -8  143.69   11.90
   3   6   8  141.79   11.60
   3   6   8  137.49   11.70
   4  -6   8  269.17   22.00
   4   6  -8  294.67   23.30
   4   6   8  277.07   22.90
   4   6   8  311.67   23.10
   5   6  -8   17.50    3.70
   5  -6   8   10.40    2.30
   5  -6  -8    9.40    5.30
   5   6   8   13.50    3.20
   5   6   8   12.80    3.00
   6   6  -8  469.15   38.30
   6   6  -8  470.35   43.40
   6  -6   8  492.35   36.80
   6   6   8  534.65   38.30
   6   6   8  451.85   39.00
   0  -7   8    0.00    1.50
   0   7   8    0.90    1.60
   0   7  -8   -0.30    1.00
   0   7   8    0.20    1.00
  -1   7   8   59.49    6.20
  -1   7   8   69.49    5.40
   1   7  -8   50.19    5.90
   1  -7   8   51.99    5.80
   1   7   8   56.99    6.10
   1   7   8   61.59    5.80
  -1   7  -8   56.59    5.30
  -1   7  -8   62.69    5.70
  -2   7   8  706.23   54.99
  -2   7   8  747.13   53.79
   2  -7   8  695.63   54.39
   2   7  -8  721.43   54.99
   2   7   8  754.92   55.09
   2   7   8  742.83   54.79
   3   7  -8   30.00    4.00
  -3   7   8   30.90    4.60
   3  -7   8   25.30    3.50
   3   7   8   29.10    4.10
   3   7   8   33.80    4.20
   4  -7   8  293.87   23.50
   4   7  -8  286.87   24.50
   4   7   8  350.76   24.80
   4  -7  -8  327.17   30.60
   4   7   8  285.17   24.30
   5  -7   8    3.00    1.80
   5   7  -8    5.90    2.80
  -5  -7  -8    7.30    6.00
   5   7  -8   10.40    5.50
   5   7   8    0.50    2.30
   6   7  -8   29.80    5.30
   6  -7   8   27.20    3.70
   6   7  -8   21.30    8.30
  -6  -7  -8   22.20    9.40
   6   7   8   22.60    4.10
   0   8   8  719.23   52.29
   0   8  -8  686.83   52.49
   0   8   8  691.93   53.09
   1  -8   8   20.80    3.50
  -1   8   8   21.40    2.90
  -1   8   8   26.50    4.20
   1   8  -8   22.00    3.50
   1   8   8   26.70    4.30
   1   8   8   23.00    3.20
  -1   8  -8   25.80    3.00
   2  -8   8  162.68   13.20
  -2   8   8  155.68   13.70
   2   8  -8  145.29   13.50
   2  -8  -8  191.58   20.90
   2   8   8  172.98   13.50
   2   8   8  152.08   13.60
  -3  -8  -8    1.90    5.40
   3  -8   8    4.20    1.70
   3   8  -8    6.90    2.30
  -3   8   8    6.10    2.40
   3   8   8    4.40    1.80
   3   8   8    8.30    2.20
   4  -8   8  100.99    8.30
   4   8  -8   99.69    9.40
  -4  -8  -8  108.79   20.40
   4   8  -8   66.89   14.60
   4   8   8   92.79    9.00
   4  -8  -8   79.09   14.80
   4   8   8   82.99   10.50
   5   8  -8   25.50    9.70
   5  -8   8   33.20    4.20
   5   8  -8   31.30    5.30
   5   8   8   27.30    4.60
   0  -9  -8    1.10    6.20
   0   9   8    0.90    1.90
   0   9  -8   -1.00    2.60
  -1   9   8   19.20    3.60
  -1  -9  -8    6.90    9.40
   1   9  -8   14.00    3.00
  -1   9   8   16.10    2.50
  -1   9  -8   15.20    2.60
   1  -9  -8    7.70    6.00
   1   9   8   20.00    3.90
   1   9   8   14.80    2.90
   2  -9   8  446.86   35.80
   2   9  -8  488.55   45.60
  -2  -9  -8  543.75   46.70
   2   9  -8  474.75   36.40
  -2   9   8  457.15   36.40
   2   9   8  437.36   36.40
   2   9   8  491.35   36.20
  -3  -9  -8   27.40   10.70
   3   9  -8   30.10    4.80
  -3   9   8   30.70    4.90
   3   9  -8   15.80    9.60
   3  -9   8   31.40    3.80
   3   9   8   25.30    5.40
   3   9   8   31.40    4.30
   3  -9  -8   29.50    8.80
   4   9  -8  104.09   18.60
  -4  -9  -8  118.49   20.00
   4   9  -8  116.79   11.50
   4  -9   8  130.39   10.70
   4   9   8  115.79   11.50
   4   9   8  148.19   11.90
   5   9  -8    1.60    1.80
   5   9  -8    9.50    7.10
   5  -9   8   -0.50    1.80
  -5  -9  -8   -2.90    9.10
   5   9   8   -0.20    1.70
   5   9   8   -1.60    1.60
   0  10   8  284.97   24.40
   0 -10  -8  308.77   33.90
   0  10  -8  292.77   23.90
   0  10  -8  335.57   34.50
   0  10   8  321.37   23.70
   1  10  -8   58.59   14.80
  -1  10   8   27.50    4.70
   1  10  -8   38.70    4.30
  -1  10   8   33.70    3.70
  -1 -10  -8   36.60   11.70
   1  10   8   25.80    4.80
  -1  10  -8   28.50    3.70
   1  10   8   37.60    4.30
  -1  10  -8   40.60   12.10
   2  10  -8   42.50   11.40
  -2 -10  -8   64.49   15.80
  -2  10   8   49.30    6.00
   2  10  -8   48.00    5.90
   2  10   8   44.30    5.90
   2  10   8   58.59    6.10
  -2  10  -8   54.79   17.30
   2 -10  -8   56.09   12.20
   3  10  -8    0.50    7.20
  -3 -10  -8   12.30    8.40
  -3  10   8    2.60    2.10
   3  10  -8   -0.10    1.60
   3  10   8    2.50    1.90
   3  10   8    3.10    1.90
   4  10  -8   68.19   16.10
  -4  10   8   70.79    8.40
   4 -10   8   84.49    7.40
   4  10  -8   81.09    8.40
  -4 -10  -8   45.60   13.80
   4  10   8   71.69    8.10
   4  10   8   85.99    8.30
   0  11   8   -1.80    1.80
   0 -11  -8    0.00    8.10
   0  11  -8    1.50    7.90
   0  11   8    1.80    1.60
  -1  11   8    2.30    1.60
   1  11  -8    2.10    7.50
   1  11  -8    2.00    1.90
  -1 -11  -8   -5.60    8.00
  -1  11  -8   13.60   13.80
   1  11   8    0.40    1.90
   1 -11  -8   -1.40    7.70
   1  11   8    0.30    1.80
  -1  11  -8    1.10    1.80
  -2 -11  -8  208.58   27.60
   2  11  -8  179.48   25.40
  -2  11   8  150.98   15.40
   2  11  -8  185.98   15.50
   2  11   8  169.28   15.70
   2  11   8  191.68   15.20
  -2  11  -8  204.78   26.30
   0   0   9    1.50    1.40
   0   0   9    1.60    1.10
   1   0   9   11.10    2.20
   1   0   9   12.60    2.00
  -1   0   9   15.50    2.30
  -2   0   9 1492.25  111.09
   2   0   9 1385.96  111.19
   2   0   9 1648.64  111.39
  -3   0   9   73.29    6.60
   3   0   9   72.49    6.60
   3   0   9   77.59    6.80
   4   0   9  702.33   52.49
   5   0   9   31.30    3.80
   5   0   9   42.70    4.50
   6   0   9   41.40    4.90
   7   0   9   27.50    3.50
   7   0   9   28.50    5.00
   0  -1   9 2168.38  160.68
   0   1   9 2201.88  160.68
   0   1   9 2195.48  161.18
   1  -1   9  113.29   10.00
  -1   1   9  134.09   10.80
   1  -1   9  140.09   10.50
  -1   1   9  119.89    9.90
   1   1   9  117.69   10.00
   1   1   9  130.59   10.40
  -1  -1   9  114.49   10.00
   2  -1   9  496.65   37.70
  -2   1   9  529.45   37.20
   2  -1   9  508.45   37.40
  -2   1  -9  467.05   37.20
   2   1   9  465.85   37.40
   2   1   9  493.15   37.90
  -2  -1   9  510.55   37.40
  -3   1   9   67.59    6.20
   3  -1   9   70.79    6.40
   3  -1   9   75.89    6.30
  -3  -1   9   67.79    6.50
   3   1   9   61.39    6.30
  -3   1  -9   73.89    6.10
   3   1   9   68.39    6.30
   4  -1   9  160.08   14.00
   4   1   9  195.08   14.10
   4   1   9  166.38   14.20
   5  -1   9   38.90    4.00
   5  -1   9   40.10    4.40
   5   1   9   40.70    4.20
   5   1   9   35.50    4.60
   6  -1   9  831.72   58.79
   6  -1   9  731.83   57.99
   6   1   9  850.61   59.09
   6   1   9  713.23   58.29
   7  -1   9   11.10    2.60
   7  -1   9    7.50    1.70
   7   1   9    6.20    1.90
   7   1   9   10.80    3.10
   0  -2   9    0.10    0.80
   0   2   9    1.10    0.90
   0   2   9    1.30    1.20
  -1   2   9   11.80    2.60
   1  -2   9   13.70    2.30
  -1   2   9   21.70    2.40
   1   2   9   16.20    2.50
  -1   2  -9   16.30    2.20
  -1  -2   9   16.90    2.70
   1   2   9   15.20    2.80
  -2   2   9 1863.91  135.89
  -2  -2   9 1763.42  136.49
   2   2   9 1856.51  136.49
  -2   2  -9 1916.91  135.99
   3  -2   9  110.79    9.60
  -3   2   9  113.09    9.30
   3  -2   9  119.19    9.40
  -3  -2   9  113.19    9.80
  -3   2  -9  116.79    9.30
   3   2   9  116.39    9.80
   3   2   9  110.59    9.70
   4  -2   9  510.55   38.60
   4  -2   9  522.35   39.00
  -4   2  -9  506.25   38.60
   4   2   9  584.54   39.50
   4   2   9  461.65   39.00
   5  -2   9    4.90    1.30
   5  -2   9    4.60    1.80
  -5   2  -9    2.50    1.30
   5   2   9    0.60    1.10
   5   2   9    1.70    1.40
   6  -2   9   29.30    3.80
   6   2   9   23.70    4.10
   7  -2   9   26.00    3.00
   7  -2   9   26.10    3.90
   7   2   9   25.60    4.20
   7   2   9   30.90    4.00
   0   3   9  504.15   37.90
   0  -3   9  516.45   38.40
   0   3   9  494.75   38.60
  -1   3   9   60.49    7.10
   1  -3   9   56.89    7.00
  -1   3   9   64.09    5.70
   1   3   9   65.29    6.50
   1   3   9   65.39    6.00
  -1   3  -9   73.39    5.90
   2  -3   9  271.57   21.80
  -2   3   9  287.37   21.20
  -2   3   9  258.17   22.10
  -2   3  -9  269.77   21.10
  -2  -3   9  283.77   21.80
   2   3   9  297.67   21.70
   3  -3   9   59.09    5.50
  -3   3   9   59.69    5.10
   3   3   9   64.29    5.80
   3   3   9   46.80    5.40
  -3   3  -9   50.79    5.30
   3  -3  -9   60.69    5.30
   4  -3   9  359.46   29.70
   4   3   9  382.56   30.30
  -4   3  -9  422.66   29.40
   4   3   9  396.56   30.20
   5  -3   9   95.99    9.00
   5   3   9  109.29    9.40
   5   3   9  110.29    9.60
   6  -3   9 1217.08   87.29
   6   3   9 1199.98   89.09
   6   3   9 1106.49   87.39
   7  -3   9    4.00    2.00
   7   3   9    6.20    2.30
   7   3   9    7.60    2.70
   0  -4   9   -0.40    0.80
   0   4   9    0.00    0.80
   0   4   9    0.30    1.00
  -1   4   9    2.10    1.00
  -1   4   9    2.30    1.40
  -1   4  -9    1.50    1.10
   1   4   9    0.90    1.20
  -1  -4   9    0.70    0.90
   1   4   9    1.80    1.20
  -2   4   9  746.83   57.59
   2  -4   9  755.82   56.89
  -2   4   9  789.72   56.59
   2  -4  -9  676.33   56.59
  -2   4  -9  800.12   56.69
  -2  -4   9  814.12   57.39
   2   4   9  727.83   57.29
   2   4   9  805.02   57.29
   3  -4   9   80.99    7.40
  -3   4   9   84.89    7.00
   3   4   9   93.89    7.90
  -3   4  -9   84.39    6.90
   3   4   9   81.89    7.70
   3  -4  -9   82.99    7.00
   4  -4   9  940.61   67.89
   4  -4  -9  836.22   67.19
   4   4   9  997.40   68.49
   4   4   9  883.61   68.29
   5  -4   9    6.90    2.00
   5   4   9    6.70    2.00
   5   4   9    1.70    1.60
   5  -4  -9    4.20    1.30
   6  -4   9   49.00    5.20
   6   4   9   47.40    6.50
   7   4  -9   27.60    8.40
   7  -4   9   36.70    4.40
   7   4   9   39.10    6.00
   7   4   9   35.00    5.20
   0   5   9  648.44   46.70
   0  -5   9  636.74   47.00
   0   5   9  584.64   47.20
   1  -5   9   67.29    6.60
  -1   5   9   76.99    6.30
  -1   5   9   66.29    7.00
  -1  -5   9   73.69    6.90
   1   5   9   70.49    7.00
  -1   5  -9   80.69    6.60
  -2   5   9  240.18   16.90
   2  -5   9  219.88   17.30
   2  -5  -9  221.48   17.00
   2   5   9  194.08   17.60
  -2   5  -9  217.38   17.10
  -3   5   9   45.70    4.30
   3  -5   9   43.60    4.80
  -3   5   9   59.99    6.10
   3  -5  -9   38.20    4.20
   3   5   9   56.59    5.40
   3   5   9   54.29    5.40
   4  -5   9  276.47   22.80
   4   5   9  322.07   23.70
   4   5   9  293.27   23.50
   5  -5   9   29.00    4.20
   5   5   9   42.40    4.70
   5   5   9   35.70    4.40
   6   5  -9  649.83   51.59
   6  -5   9  675.93   50.19
   6   5   9  716.23   51.39
   6   5   9  628.84   50.79
   7   5  -9   13.50    9.60
  -7  -5  -9   11.80    7.30
   7  -5   9    4.60    2.30
   7   5   9    9.30    2.90
   0   6   9    1.90    1.40
   0  -6   9    1.60    1.30
   0   6   9    1.50    1.10
  -1   6   9    6.00    2.30
  -1   6   9   11.90    1.90
   1  -6   9   11.40    2.50
  -1  -6   9   10.70    2.60
   1   6   9    8.20    2.30
  -1   6  -9   10.80    2.10
   1   6   9    8.30    2.10
   2  -6   9  791.92   59.69
  -2   6   9  820.12   59.19
  -2   6   9  776.82   60.39
  -2   6  -9  817.62   59.19
   2  -6  -9  766.62   59.39
   2   6   9  793.02   60.29
   2   6   9  834.92   60.09
   3  -6   9   37.10    4.50
  -3   6   9   38.70    5.30
   3   6   9   45.10    4.90
   3   6   9   45.70    5.00
   4  -6   9  330.67   25.40
   4   6  -9  329.77   26.60
   4   6   9  307.67   26.10
   4   6   9  355.36   26.40
   5  -6   9   24.70    3.40
   5   6   9   20.90    4.00
   6   6  -9    3.90    6.10
   6  -6   9   20.80    3.20
   6   6  -9   29.70    4.80
  -6  -6  -9    2.00    6.60
   6   6   9   28.80    4.30
   6   6   9   16.60    3.70
   0   7   9  847.72   59.79
   0   7   9  763.32   60.29
   0  -7   9  807.52   60.09
   0   7  -9  780.82   59.89
  -1   7   9   49.10    4.60
   1  -7   9   41.10    4.90
   1   7  -9   44.60    5.00
  -1   7   9   40.20    5.40
   1   7   9   45.00    5.30
  -1   7  -9   51.79    4.70
   1   7   9   55.29    5.10
   2   7  -9  213.98   17.90
  -2   7   9  198.18   17.90
   2  -7   9  217.28   17.40
  -2   7   9  236.88   16.70
   2   7   9  240.88   17.70
   2  -7  -9  241.68   17.10
  -2   7  -9  208.08   16.80
   2   7   9  203.78   17.80
  -2   7  -9  198.38   16.70
   3   7  -9   36.60    4.50
   3  -7   9   29.60    3.90
  -3   7   9   39.40    5.40
   3   7   9   37.50    4.60
   3   7   9   31.90    4.50
   4  -7   9   91.99    8.40
   4   7  -9  100.29    9.40
   4   7   9  101.19    9.30
   4   7   9   94.19   10.30
   5  -7   9   20.90    3.40
   5   7  -9   10.30    6.40
   5   7  -9   24.60    4.70
   5   7   9   23.00    4.30
   5   7   9   27.20    4.40
   6   7  -9  313.27   32.90
   6  -7   9  333.87   24.70
  -6  -7  -9  361.16   35.80
   6   7  -9  301.37   26.20
   6   7   9  277.67   25.50
   6   7   9  340.47   26.10
   0   8   9    0.80    1.60
   0   8  -9    0.40    1.60
   0   8   9    1.20    1.30
   1   8  -9   14.70    3.10
  -1   8   9   18.70    2.70
   1  -8   9   21.00    3.50
  -1   8   9   24.50    4.00
   1   8   9   20.50    3.70
   1   8   9   20.60    3.20
  -1   8  -9   21.70    3.10
   2  -8   9  419.06   32.80
  -2   8   9  448.16   32.10
   2   8  -9  424.26   33.30
  -2   8   9  402.96   33.50
   2   8   9  452.45   33.10
   2   8   9  419.86   33.40
   3   8  -9   33.60    4.60
   3  -8   9   35.80    4.10
  -3   8   9   35.30    4.90
   3  -8  -9   25.00    8.20
   3   8   9   29.70    4.80
   3   8   9   36.70    4.40
  -4  -8  -9  257.17   27.90
   4  -8   9  218.88   17.10
   4   8  -9  232.48   26.00
   4   8   9  189.48   17.80
   5   8  -9   -0.60    6.10
  -5  -8  -9    0.60    7.20
   5   8  -9    1.60    2.00
   5  -8   9   -0.70    1.60
   5   8   9    1.50    1.90
   5   8   9    2.50    2.10
   0   9   9  353.16   28.80
   0   9  -9  349.96   28.10
   0   9   9  370.66   27.90
   0  -9  -9  398.96   38.00
  -1   9   9   32.40    3.60
   1   9  -9   34.80    4.20
  -1   9   9   28.00    4.60
  -1  -9  -9   24.30    9.30
  -1   9  -9   33.20    3.80
   1  -9  -9   21.70    9.00
   1   9   9   28.00    4.70
   1   9   9   34.10    4.10
  -2   9   9   90.59    7.40
   2  -9   9   91.79    8.40
  -2  -9  -9   84.39   16.50
   2   9  -9   81.09    8.50
   2  -9  -9   86.59   16.50
   2   9   9   94.49    8.60
  -3   9   9    1.20    1.90
  -3  -9  -9    4.50    8.50
   3   9  -9    1.20    5.70
   3   9  -9    4.20    2.40
   3  -9   9    3.60    1.60
   3   9   9    0.90    1.90
   3   9   9    0.60    1.70
   4   9  -9   93.99    9.20
  -4  -9  -9   87.69   17.90
   4  -9   9  103.19    8.40
   4   9  -9   86.09   17.30
   4   9   9   85.39    9.00
   4   9   9   77.99    8.90
   0 -10  -9   -7.20    7.60
   0  10   9    5.70    3.80
   0  10  -9    0.50    8.30
   0  10   9   -1.80    1.40
   0  10  -9    0.70    1.50
  -1  10   9    4.20    1.40
  -1  10   9    0.10    2.10
   1  10  -9    2.70    1.80
   1  10  -9   -0.90    6.80
  -1 -10  -9   -1.10    7.90
   1  10   9    0.70    1.80
   1  10   9    1.00    1.40
  -1  10  -9    1.90    1.80
  -1  10  -9    1.90    6.50
  -2  10   9  203.18   19.90
  -2 -10  -9  293.67   32.30
   2  10  -9  254.27   29.80
   2  10  -9  244.38   20.00
   2  10   9  219.78   20.00
  -2  10  -9  250.97   29.80
   2 -10  -9  257.97   30.10
   2  10   9  274.67   19.90
  -3  10   9   14.50    3.60
  -3 -10  -9   34.20   11.80
   3  10  -9   12.80    8.90
   3  10  -9   21.10    3.90
   3  10   9   23.40    4.10
   3  10   9   22.50    4.30
   0  11   9  133.39   13.00
   0  11   9  150.18   12.10
   0  11  -9  137.19   12.20
   0  11  -9  181.88   27.60
   1  11  -9   22.30    3.60
   1  11  -9   15.30   11.00
  -1  11   9   15.80    3.60
  -1 -11  -9   16.50   11.10
  -1  11  -9   13.80   11.30
  -1  11  -9   16.30    4.10
   1  11   9   18.30    4.20
   1 -11  -9   14.60   11.10
   1  11   9   18.70    3.30
   0   0  10 2391.36  174.98
   0   0  10 2358.36  174.38
   1   0  10  355.56   27.70
   1   0  10  368.96   27.80
  -1   0  10  353.86   27.30
   2   0  10  303.37   25.50
   2   0  10  345.57   25.50
  -2   0  10  343.17   25.30
   3   0  10  144.99   11.20
   3   0  10  121.79   11.00
   4   0  10  224.18   18.50
   4   0  10  228.98   17.90
   5   0  10    3.20    1.70
   5   0  10    6.40    2.10
   6   0  10  544.65   39.60
   6   0  10  489.05   39.00
   7   0  10    0.50    1.20
   7   0  10    0.70    1.50
   0   1  10   -1.00    1.60
   0   1  10    1.50    1.10
   1  -1  10   -0.20    1.20
  -1   1  10    0.60    1.10
   1  -1  10    1.30    1.20
   1   1  10   -0.30    1.20
   1   1  10    0.70    1.30
   2  -1  10 1632.24  119.49
  -2   1  10 1607.04  119.19
   2  -1  10 1644.14  119.39
   2   1  10 1541.55  119.59
  -2  -1  10 1611.54  119.89
   2   1  10 1680.13  119.59
   3  -1  10   40.50    4.30
   3  -1  10   41.70    4.20
  -3   1  10   37.70    4.10
  -3  -1  10   37.80    4.40
   3   1  10   37.80    4.20
   3   1  10   40.60    4.30
   4  -1  10  352.06   26.80
   4  -1  10  323.37   26.40
   4   1  10  325.37   26.60
   4   1  10  385.26   27.00
   5  -1  10   47.60    4.80
   5   1  10   50.79    5.20
   6  -1  10   39.90    4.10
   6  -1  10   29.10    4.30
   6   1  10   45.90    4.60
   7  -1  10   57.09    6.10
   7   1  10   59.99    6.00
   7   1  10   52.49    6.30
   0   2  10 1225.48   93.29
   0  -2  10 1272.57   92.79
   0   2  10 1266.27   92.69
   1  -2  10   66.79    6.40
  -1   2  10   68.29    6.20
  -1   2  10   80.09    7.10
   1   2  10   76.99    6.90
  -1  -2  10   68.89    6.50
   1   2  10   68.89    6.60
   2  -2  10  223.88   17.30
  -2   2  10  229.68   17.10
  -2  -2  10  218.98   17.40
   2   2  10  191.88   17.40
   2   2  10  231.18   17.50
  -3   2  10    2.00    1.30
   3  -2  10    1.40    1.10
   3  -2  10    4.20    1.50
   3   2  10    4.20    1.40
   3   2  10    0.70    1.20
  -3  -2  10    3.90    1.60
   4  -2  10  485.95   33.60
   4  -2  10  414.56   33.70
   4   2  10  445.76   34.00
   4   2  10  426.06   34.10
   5  -2  10   99.29    8.60
   5  -2  10  105.89    9.20
   5   2  10   99.09    9.10
   5   2  10  109.09    9.60
   6  -2  10  666.13   51.59
   6   2  10  721.83   52.39
   7  -2  10    7.00    1.60
   7  -2  10   13.40    3.90
   7   2  10   12.00    3.00
   7   2  10    5.40    2.10
   0  -3  10    0.40    1.10
   0   3  10    1.40    1.20
   0   3  10    0.70    0.90
  -1   3  10    3.20    1.60
  -1   3  10    3.20    1.30
   1  -3  10    4.10    1.60
   1   3  10    3.80    1.50
   1   3  10    3.50    1.60
  -1  -3  10    1.60    1.40
  -2   3  10  798.42   61.69
  -2   3  10  816.62   60.49
   2   3  10  843.02   60.99
  -2   3 -10  800.42   60.99
  -2  -3  10  849.72   61.09
   2   3  10  785.52   61.19
   3  -3  10   59.49    5.50
  -3   3  10   48.50    5.00
   3   3  10   53.29    5.60
   3   3  10   67.79    5.90
  -3   3 -10   50.79    4.80
   4  -3  10  869.31   62.79
  -4   3 -10  777.52   62.19
   4   3  10  939.91   63.39
   4   3  10  782.92   62.89
   5  -3  10   20.40    3.30
   5   3  10   21.50    3.90
   6  -3  10   30.80    4.00
   6   3  10   27.80    4.50
   7   3  10   23.50    3.90
   7   3  10   29.40    4.70
   0   4  10  709.43   53.59
   0   4  10  701.43   52.89
   0  -4  10  718.83   53.19
  -1   4  10   69.09    6.90
  -1   4  10   69.19    6.00
   1  -4  10   64.99    6.40
  -1  -4  10   69.29    6.60
   1   4  10   72.19    6.80
   1   4  10   69.69    6.40
   2  -4  10  147.89   12.30
  -2   4  10  155.18   11.90
  -2   4  10  140.09   12.90
  -2  -4  10  162.38   12.70
  -2   4 -10  133.29   11.80
   2   4  10  172.18   12.70
   2   4  10  142.69   13.10
  -3   4  10   51.19    4.70
   3  -4  10   42.50    5.00
  -3   4 -10   51.19    4.60
   3   4  10   55.79    5.50
   3   4  10   48.40    5.40
   4  -4  10  411.46   32.80
   4   4  10  452.45   33.40
   4   4  10  431.56   33.40
   5   4  10   52.99    5.80
   5   4  10   50.39    5.80
   6  -4  10  755.42   56.09
   6   4  10  797.22   56.99
   6   4  10  685.03   56.29
   0   5  10    0.80    1.30
   0  -5  10    0.70    1.20
   0   5  10    1.10    1.10
   1  -5  10    0.90    1.30
  -1   5  10    1.30    1.50
  -1   5  10   -0.40    0.90
   1   5  10    0.60    1.30
   1   5  10   -0.30    1.00
  -1  -5  10    0.40    1.30
  -2   5  10  830.02   61.29
   2  -5  10  849.32   61.79
  -2   5  10  790.22   62.49
   2   5  10  894.71   62.09
  -2  -5  10  835.92   62.19
  -2   5 -10  779.52   61.29
   2   5  10  817.92   62.29
  -3   5  10   48.00    4.50
   3  -5  10   49.60    5.10
   3   5  10   49.20    5.50
   3   5  10   49.20    5.40
   4  -5  10  445.06   33.30
   4   5  10  406.36   33.70
   4   5  10  455.35   33.90
   5  -5  10   36.80    4.40
   5   5  10   31.90    4.60
   6   5 -10   22.60    4.40
   6  -5  10   19.70    3.30
   6   5  10   21.10    4.10
   0   6  10  934.61   73.09
   0   6  10  929.91   72.69
   0  -6  10 1060.49   72.89
  -1   6  10   75.29    6.40
  -1   6  10   57.99    7.00
   1  -6  10   71.89    6.80
  -1  -6  10   77.29    7.30
   1   6  10   75.69    6.90
   2  -6  10  185.68   15.10
  -2   6  10  172.98   15.80
  -2   6  10  207.58   14.70
   2   6  10  175.98   15.50
  -3   6  10   26.40    4.70
  -3   6  10   21.90    2.80
   3  -6  10   27.40    3.90
   3   6  10   23.70    4.00
   3   6  10   24.70    4.00
   4  -6  10  129.09   10.80
   4   6  10  115.49   11.30
   4   6  10  139.59   11.60
   5  -6  10   31.30    4.20
   5   6 -10   28.60    5.00
   5   6  10   28.80    4.70
   5   6  10   38.00    6.10
   6  -6  10  375.26   28.30
   6   6 -10  353.46   29.60
   6   6  10  382.76   29.30
   6   6  10  345.17   29.00
   0   7  10   -1.30    1.00
   0   7  10    0.10    1.80
   0  -7  10    1.40    1.60
  -1   7  10    9.00    2.50
   1  -7  10    7.40    2.20
  -1   7  10    6.50    1.70
   1   7  10    9.30    2.30
   1   7  10    9.50    2.30
  -2   7  10  574.04   46.30
   2  -7  10  603.94   45.60
  -2   7  10  623.74   44.90
   2   7  10  657.53   45.90
   2   7  10  531.75   46.00
  -2   7 -10  570.94   44.90
  -2   7 -10  655.53   45.20
  -3   7  10   42.50    6.10
   3   7 -10   42.50    5.20
   3  -7  10   42.20    4.70
   3   7  10   38.00    5.00
   3   7  10   41.60    5.10
   4  -7  10  190.98   14.70
   4   7 -10  190.68   16.70
   4   7  10  155.18   15.40
   4   7  10  175.28   17.50
   5  -7  10    8.30    2.40
   5   7 -10    5.70    2.60
   5   7  10    6.90    2.80
   5   7  10    9.80    2.70
   0   8  10  728.73   51.29
   0   8  10  615.34   51.99
   0  -8  10  700.93   51.79
   0   8 -10  683.33   51.49
   1   8 -10   67.09    6.30
  -1   8  10   56.49    6.70
  -1   8  10   65.09    5.80
   1  -8  10   54.19    6.20
   1   8  10   65.59    6.20
   1   8  10   47.50    6.50
  -1   8 -10   64.89    5.90
   2  -8  10   77.29    7.40
  -2   8  10   67.79    7.90
   2   8 -10   76.99    7.60
  -2   8  10   86.69    6.60
  -2   8 -10   76.59    6.70
   2   8  10   84.59    7.60
   2   8  10   62.89    7.50
   3   8 -10    3.30    2.10
   3  -8  10    0.40    1.60
  -3   8  10    1.30    2.10
   3   8  10    0.80    1.40
   3   8  10    3.20    1.80
   4   8 -10  105.09   10.10
   4  -8  10  104.69    9.30
   4   8  10   95.69    9.80
   4   8  10  109.19   10.00
   5   8 -10   13.20    3.70
   5   8 -10   14.10    8.20
  -5  -8 -10    9.30   10.60
   5  -8  10   17.00    3.10
   5   8  10   13.10    3.40
   5   8  10   17.90    3.90
   0   9  10    0.00    2.00
   0   9  10    1.50    1.40
   0   9 -10    2.50    1.80
  -1   9  10    5.40    2.60
   1   9 -10    3.60    1.80
   1  -9  10    5.10    2.40
   1   9  10    0.60    1.90
  -1   9 -10    7.10    2.00
   1   9  10    4.50    2.00
   2  -9  10  264.47   21.60
  -2  -9 -10  307.17   34.30
  -2   9  10  239.98   22.20
   2   9 -10  265.37   22.00
  -2   9  10  292.87   20.70
   2  -9 -10  302.37   31.60
   2   9  10  234.78   22.00
   2   9  10  297.77   21.90
   3   9 -10   34.30    7.90
  -3   9  10   31.10    5.30
   3  -9  10   32.20    4.40
  -3  -9 -10   25.70   11.20
   3   9  10   44.30    7.80
  -4  -9 -10  146.09   23.60
   4  -9  10  152.78   12.30
   4   9 -10  149.19   13.40
   4   9  10  126.99   12.90
   0 -10 -10  173.58   29.20
   0  10 -10  191.98   15.60
   0  10  10  204.28   15.40
   0  10  10  167.18   16.20
   1  10 -10   19.40    3.60
  -1 -10 -10   11.00   10.20
  -1  10  10   11.70    3.40
  -1  10  10   15.70    2.70
  -1  10 -10   19.20    3.60
   1  10  10    9.80    3.20
   1 -10 -10   20.30   11.20
   1  10  10   15.70    3.00
   2  10 -10   22.10   10.90
  -2  10  10   24.10    4.60
   2  10 -10   31.70    4.70
  -2 -10 -10   46.00   14.20
   2  10  10   20.40    4.20
   0   0  11    1.60    1.10
   1   0  11   -0.90    1.20
   1   0  11    0.20    1.00
  -1   0  11   -0.70    1.20
   2   0  11 1479.45  101.69
   2   0  11 1263.27  102.39
  -2   0  11 1372.86  101.49
   3   0  11  109.89    9.10
  -3   0  11   95.59    8.80
   4   0  11  254.27   21.80
   4   0  11  308.47   22.30
   5   0  11   13.50    2.60
   6   0  11   20.50    3.20
   7   0  11   77.79    7.30
   7   0  11   76.99    8.00
   0  -1  11 1678.93  118.19
   0   1  11 1481.25  118.59
   0   1  11 1639.04  117.99
   1  -1  11  218.68   16.40
  -1   1  11  205.28   16.20
  -1  -1  11  204.48   16.30
   1   1  11  214.68   16.40
   1   1  11  184.78   16.60
   2  -1  11  308.97   22.10
  -2   1  11  293.27   21.90
  -2  -1  11  272.37   21.90
   2   1  11  303.47   22.20
   2   1  11  233.18   21.90
   3  -1  11    9.00    2.10
  -3   1  11    8.50    2.00
   3  -1  11   12.30    2.40
   3   1  11   11.70    2.30
  -3  -1  11   14.50    2.60
   3   1  11   10.80    2.30
   4  -1  11  354.36   26.80
   4  -1  11  345.47   26.60
   4   1  11  334.17   26.80
   4   1  11  341.57   26.70
   5  -1  11   40.30    4.60
   5  -1  11   34.00    4.00
   5   1  11   37.40    4.30
   6  -1  11  449.06   38.00
   6   1  11  501.75   36.70
   7  -1  11    0.70    1.60
   7   1  11   -1.10    1.20
   0   2  11    1.40    1.10
   0   2  11    0.80    1.40
   0  -2  11    0.60    1.00
   1  -2  11   18.90    2.80
  -1   2  11   11.60    2.70
  -1   2  11   17.00    3.40
   1   2  11   15.70    3.10
  -1  -2  11   20.10    3.00
   1   2  11   18.60    2.90
  -2   2  11  518.35   41.40
   2  -2  11  536.35   40.10
  -2  -2  11  521.65   40.10
   2   2  11  521.25   40.40
   2   2  11  547.75   40.20
   3  -2  11   84.59    7.60
  -3   2  11   78.09    7.60
   3  -2  11   81.09    7.90
  -3  -2  11   88.09    7.90
   3   2  11   75.09    7.60
   3   2  11   93.39    7.90
  -4   2  11  913.41   69.49
   4  -2  11  952.10   68.79
   4   2  11  831.92   68.79
   4   2  11  983.80   69.09
   5  -2  11   10.80    2.40
   5  -2  11    6.60    1.90
   5   2  11    9.20    2.10
   5   2  11   12.50    2.70
   6  -2  11   18.20    3.40
   6   2  11   20.30    3.70
   0   3  11  998.20   72.29
   0  -3  11  993.10   72.59
   0   3  11  929.81   72.99
  -1   3  11   57.29    6.60
   1  -3  11   63.39    6.20
   1   3  11   68.59    6.20
  -1  -3  11   69.39    6.40
  -2   3  11  154.68   12.40
  -2  -3  11  159.28   13.00
   2   3  11  171.18   13.10
   2   3  11  137.49   13.00
  -3   3  11   83.29    7.60
   3  -3  11   99.99    8.20
   3   3  11   88.99    8.30
   3   3  11   88.29    8.20
  -3  -3  11   87.29    8.40
  -4   3  11  490.25   37.30
   4  -3  11  480.65   37.60
   4   3  11  513.25   38.10
   4   3  11  493.35   37.90
   5  -3  11   67.39    6.90
  -5   3 -11   70.69    6.60
   5   3  11   76.19    7.20
   5   3  11   71.59    7.60
   6  -3  11  515.65   39.10
   6   3  11  476.95   39.20
   6   3  11  538.45   39.70
   0   4  11   -0.90    0.80
   0  -4  11    1.00    1.20
   0   4  11    1.30    1.30
   1  -4  11   29.20    3.90
  -1   4  11   28.70    4.50
  -1  -4  11   40.30    4.20
   1   4  11   27.50    3.70
   1   4  11   28.00    4.40
  -2   4  11  565.84   43.20
   2  -4  11  604.64   43.70
  -2   4  11  505.25   44.30
   2   4  11  565.34   44.10
  -2  -4  11  594.04   44.00
   2   4  11  630.34   43.90
  -3   4  11   64.49    5.90
   3  -4  11   65.59    6.40
   3   4  11   80.29    7.00
   3   4  11   60.69    6.60
  -3   4 -11   62.59    5.80
   4  -4  11  566.24   40.70
  -4   4  11  547.65   40.20
   4   4  11  602.24   41.30
   4   4  11  494.95   40.90
  -4   4 -11  474.35   39.90
   5  -4  11   26.20    4.00
   5   4  11   18.20    3.80
   5   4  11   23.10    4.20
   6  -4  11   19.30    3.70
   6   4  11   15.10    3.60
   6   4  11   23.50    4.50
   0   5  11  816.62   61.39
   0   5  11  816.42   60.59
   0  -5  11  803.42   60.89
   1  -5  11   74.69    7.40
  -1   5  11   67.99    7.80
   1   5  11   72.59    7.60
  -1  -5  11   81.99    7.60
   1   5  11   93.09    7.40
  -2   5  11  176.88   14.20
  -2   5  11  153.88   15.30
   2  -5  11  192.78   14.90
  -2  -5  11  194.78   15.20
   2   5  11  169.68   15.20
   2   5  11  197.58   15.00
  -3   5  11   54.89    5.00
   3  -5  11   56.79    5.60
  -3   5 -11   46.40    4.90
   3   5  11   59.29    6.00
   3   5  11   49.20    5.70
  -4   5  11  193.68   15.70
   4  -5  11  207.08   16.30
   4   5  11  202.68   16.80
   4   5  11  201.08   16.80
   5  -5  11   39.90    4.90
   5   5  11   43.10    5.80
   5   5  11   46.00    5.50
   6  -5  11  422.06   35.60
   6   5  11  419.26   34.90
   6   5  11  502.75   35.50
   0  -6  11    3.10    1.60
   0   6  11    0.80    1.40
   0   6  11   -0.50    0.90
  -1   6  11   32.10    4.90
  -1   6  11   20.00    3.50
   1  -6  11   33.20    4.50
   1   6  11   22.60    4.00
  -1  -6  11   32.40    4.50
   1   6  11   26.70    3.90
  -2   6  11  468.35   39.70
   2  -6  11  534.35   39.10
  -2   6  11  542.55   38.40
   2   6  11  552.84   39.30
   2   6  11  454.95   39.40
   3  -6  11   45.20    5.00
  -3   6  11   43.50    4.20
  -3   6  11   34.20    6.00
   3   6  11   49.50    5.30
   3   6  11   36.40    5.10
   4  -6  11  251.07   19.10
   4   6  11  221.88   20.50
   5  -6  11   10.40    2.50
   5   6 -11    8.90    2.90
   5   6  11   13.40    3.30
   5   6  11    5.60    2.60
   0   7  11  701.43   57.39
   0   7  11  816.22   56.69
   0  -7  11  745.93   57.09
  -1   7  11   96.79    8.20
   1  -7  11   99.39    8.80
  -1   7  11   82.59    9.30
   1   7  11   90.89    9.00
   1   7  11  104.69    8.70
   2  -7  11   88.89    8.20
  -2   7  11   71.29    8.60
  -2   7  11   97.99    7.60
   2   7  11   78.69    8.50
   2   7  11   97.79    8.40
   3  -7  11   -1.10    1.40
  -3   7  11   -0.70    1.80
  -3   7  11    1.80    1.40
   3   7  11   -0.70    1.80
   3   7  11    0.70    1.30
   4   7 -11  118.89   11.00
   4  -7  11  119.19   10.00
   4   7  11  109.49   10.40
   4   7  11  101.39   10.60
   5  -7  11   16.80    3.10
   5   7 -11   18.60    4.00
   5   7  11   17.30    3.60
   5   7  11   19.40    3.80
   0   8  11    1.80    1.30
   0   8 -11    0.20    1.20
   0  -8  11    2.20    1.70
   0   8  11   -0.80    1.70
  -1   8  11    6.20    1.80
   1   8 -11    3.90    1.90
   1  -8  11    3.40    2.20
  -1   8  11    4.20    2.10
  -1   8 -11    6.40    2.00
   1   8  11    6.00    2.10
   1   8  11    6.20    3.80
   2   8 -11  336.37   26.40
  -2   8  11  334.37   25.00
   2  -8  11  324.57   25.90
   2   8  11  336.07   26.00
  -2   8 -11  317.37   25.10
   3   8 -11   47.50    8.50
   3  -8  11   46.40    5.10
   3   8  11   32.90    4.70
   4   8 -11  149.29   13.90
   4  -8  11  155.98   13.10
   4   8  11  125.59   16.10
   4   8  11  175.78   14.00
   0   9  11  339.17   23.50
   0   9 -11  297.57   23.70
   0   9  11  253.67   24.20
   1  -9  11   36.00    5.80
  -1   9  11   29.00    3.90
  -1   9  11   36.40    5.50
   1   9 -11   38.80    4.40
   1   9  11   23.80    4.90
   1   9  11   31.20    4.20
  -1   9 -11   31.10    4.40
   2   9 -11   36.70    4.90
  -2   9  11   26.50    4.90
  -2   9  11   36.60    3.90
   2  -9  11   26.70    4.40
  -2   9 -11   33.80    3.80
   2   9  11   38.30    4.90
   3  -9  11    1.00    2.10
  -3   9  11    1.60    2.20
   3   9 -11    1.70    1.90
  -3  -9 -11   -0.30    9.10
   3   9  11    0.80    1.60
   3   9  11    1.30    1.70
   0  10  11    3.20    2.50
   0  10 -11   -0.30    2.00
   0  10  11   -1.00    1.60
  -1 -10 -11   -9.30    9.60
  -1  10  11    3.60    1.80
   1  10 -11    2.20    2.20
  -1  10  11    6.00    2.90
   1  10  11    3.80    2.40
  -1  10 -11    5.70    2.30
   1 -10 -11   -7.90    9.00
   1  10  11    6.60    2.20
   0   0  12 1143.29   84.79
   1   0  12  101.49    8.40
   1   0  12   84.39    8.60
  -1   0  12   90.99    8.20
  -2   0  12  166.68   12.80
   2   0  12  164.78   12.90
   2   0  12  134.09   12.90
  -3   0  12   98.99    8.00
   3   0  12   73.69    7.70
   4   0  12  265.17   21.00
   4   0  12  264.57   21.20
   5   0  12   77.39    7.40
   5   0  12   79.99    8.00
   6   0  12  596.44   42.30
   6   0  12  503.55   41.50
   0   1  12    3.00    1.50
   0  -1  12    3.00    1.40
   0   1  12    2.60    1.90
   1  -1  12    3.50    1.40
  -1   1  12    2.40    1.50
  -1  -1  12    2.00    1.70
   1   1  12    2.00    1.30
   1   1  12    4.80    2.10
   2  -1  12  681.33   54.09
  -2   1  12  705.53   53.59
   2  -1  12  766.32   53.89
   2   1  12  675.73   54.09
  -2  -1  12  735.33   53.79
   2   1  12  733.73   53.89
   3  -1  12  110.69    9.60
   3  -1  12   90.29    9.30
  -3   1  12  110.89    9.40
  -3  -1  12  110.19    9.60
   3   1  12  119.39    9.80
   3   1  12  109.99    9.80
  -4   1  12  478.05   37.30
   4  -1  12  513.45   37.60
   4   1  12  443.86   37.40
   4   1  12  529.25   37.80
   5  -1  12    4.70    1.90
   5  -1  12    9.50    2.40
   5   1  12    2.80    1.80
   6  -1  12   10.40    2.70
   6   1  12    6.60    2.30
   0  -2  12 1253.87   92.19
   0   2  12 1231.68   91.99
   1  -2  12   83.89    8.20
  -1   2  12   99.49    9.20
  -1   2  12   88.79    8.00
  -1  -2  12   92.49    8.30
   1   2  12   92.89    8.80
   1   2  12   98.29    8.30
   2  -2  12  116.69   10.30
  -2   2  12  119.29   10.00
  -2  -2  12  121.39   10.40
   2   2  12  135.39   10.60
   2   2  12  107.49   10.40
  -3   2  12   30.90    3.60
  -3  -2  12   30.90    4.10
   3   2  12   27.20    3.80
   3   2  12   27.60    4.20
   4  -2  12  335.07   26.50
   4  -2  12  354.46   26.80
  -4   2  12  323.67   26.40
   4   2  12  348.07   27.00
   4   2  12  353.16   27.00
   5  -2  12   45.80    5.00
   5  -2  12   31.00    4.30
   5   2  12   42.70    5.10
   5   2  12   45.60    5.00
   6  -2  12  416.76   29.90
   6  -2  12  338.57   29.00
   6   2  12  390.66   30.30
   6   2  12  382.26   29.90
   0  -3  12    1.50    1.40
   0   3  12    0.40    1.10
   0   3  12    1.90    1.70
  -1   3  12   16.00    3.40
  -1   3  12   17.50    2.90
   1  -3  12   14.70    2.70
   1   3  12   17.20    3.40
   1   3  12   14.40    2.70
  -1  -3  12   17.80    3.10
   2  -3  12  426.46   32.30
  -2   3  12  399.26   31.80
   2   3  12  433.96   32.30
  -2  -3  12  418.36   32.40
   2   3  12  421.36   32.70
  -3   3  12   81.69    7.40
   3  -3  12   86.69    8.00
  -3  -3  12   94.39    8.30
   3   3  12   92.19    8.10
   3   3  12   69.99    7.90
   4  -3  12  714.43   50.59
  -4   3  12  629.74   49.99
   4   3  12  606.64   50.59
   4   3  12  724.13   50.89
   5  -3  12   25.10    3.90
   5   3  12   27.70    4.30
   6  -3  12   14.80    3.10
   6   3  12   13.80    3.10
   6   3  12   22.60    3.50
   0  -4  12  804.72   59.49
   0   4  12  767.92   60.09
   0   4  12  801.42   59.19
  -1   4  12   27.00    3.50
   1  -4  12   29.50    4.10
  -1   4  12   28.10    4.60
   1   4  12   34.00    4.00
  -1  -4  12   31.30    4.00
   1   4  12   34.50    4.60
  -2   4  12  203.58   16.00
  -2   4  12  179.68   17.20
   2  -4  12  216.88   16.60
   2   4  12  229.98   16.80
  -2  -4  12  211.98   16.80
   2   4  12  174.58   16.70
   3  -4  12   32.60    4.30
   3   4  12   34.90    4.50
   3   4  12   33.70    4.40
   4  -4  12  214.08   17.50
   4   4  12  227.58   18.10
   4   4  12  207.28   18.30
   5  -4  12   72.49    7.70
   5   4  12   63.49    7.10
   5   4  12   73.69    7.40
   6  -4  12  411.86   33.00
   6   4  12  442.26   33.80
   0   5  12    0.80    1.80
   0  -5  12    1.60    1.70
   0   5  12    1.10    1.20
  -1   5  12   26.70    3.50
   1  -5  12   31.10    4.30
  -1   5  12   25.40    4.40
   1   5  12   28.00    3.70
   1   5  12   25.30    4.30
  -1  -5  12   33.70    4.70
  -2   5  12  474.65   38.00
   2  -5  12  517.95   38.70
   2   5  12  493.75   39.80
  -2  -5  12  518.65   39.00
   2   5  12  526.65   38.80
  -3   5  12   60.89    5.70
   3  -5  12   65.59    6.40
   3   5  12   66.59    6.50
   3   5  12   51.39    6.60
  -4   5  12  296.37   23.90
   4  -5  12  321.77   24.60
   4   5  12  358.46   25.40
   4   5  12  279.17   24.80
   5   5  12    4.80    2.00
   5   5  12    6.90    2.60
   0   6  12  741.23   50.09
   0   6  12  581.84   50.59
   1  -6  12   77.19    7.50
  -1   6  12   74.39    6.80
  -1   6  12   65.79    7.70
   1   6  12   83.99    7.30
   1   6  12   71.09    7.60
  -1  -6  12   70.49    7.50
  -2   6  12  110.29    9.50
   2  -6  12  118.99   10.10
   2   6  12  126.69   10.20
   2   6  12   92.89   10.20
  -3   6  12    1.60    1.30
   3  -6  12   -1.90    1.50
   3   6  12   -0.70    1.30
   4  -6  12  132.09   11.50
   4   6  12  127.09   11.90
   4   6  12  134.49   11.90
   5  -6  12   32.10    4.50
   5   6  12   31.50    4.80
   5   6  12   22.30    4.20
   0  -7  12    3.10    1.70
   0   7  12    3.00    1.60
   0   7  12   -0.30    1.70
   1  -7  12    0.80    1.70
  -1   7  12    3.80    2.40
  -1   7  12   -0.20    1.30
   1   7  12    2.90    1.90
  -1  -7  12    1.70    2.40
  -2   7  12  366.06   28.40
   2  -7  12  363.36   28.30
   2   7  12  312.97   28.60
   2   7  12  402.86   28.50
   3  -7  12   53.99    5.90
  -3   7  12   47.00    6.60
   3   7  12   58.69    6.70
   4   7 -12  171.18   14.20
   4   7  12  136.99   13.40
   0   8 -12  366.36   27.40
   0   8  12  294.27   27.70
   0  -8  12  337.77   27.60
   0   8  12  383.96   27.00
  -1   8  12   33.90    5.90
   1   8 -12   38.40    5.00
  -1   8  12   43.60    4.50
   1   8  12   45.90    5.10
  -1   8 -12   37.40    4.60
  -2   8  12   32.80    6.00
   2   8 -12   46.80    5.60
   2   8  12   40.60    5.60
   2   8  12   56.69    5.50
  -2   8 -12   45.20    4.80
  -3   8  12    0.00    2.50
   3  -8  12    8.10    2.60
   3   8 -12    4.70    2.20
   3   8  12    5.50    2.20
   3   8  12    5.80    2.40
   0   9  12    1.80    1.70
   0   9  12   -0.50    1.70
   0   9 -12    1.50    1.60
  -1   9  12    2.10    1.60
  -1   9  12   -2.70    2.00
   1   9 -12    2.00    2.10
   1  -9  12    1.30    2.00
  -1   9 -12    3.20    1.90
   1   9  12    1.40    2.10
   1   9  12    2.00    1.90
   2   9 -12  116.39   12.70
   2  -9  12  115.99    9.90
  -2   9  12  101.19   10.60
   2   9  12   87.89    9.80
   0   0  13    4.40    1.80
   1   0  13   36.60    5.20
  -1   0  13   49.20    5.00
   1   0  13   46.10    4.90
   2   0  13  625.04   44.20
  -2   0  13  585.14   43.90
   2   0  13  531.45   44.30
   3   0  13   76.69    7.40
  -3   0  13   75.39    7.10
   3   0  13   73.79    7.30
  -4   0  13  517.65   38.80
   4   0  13  554.44   39.10
   4   0  13  448.76   38.60
   5   0  13    0.50    1.60
   5   0  13    3.00    1.80
   6   0  13   10.70    2.70
   0  -1  13  928.11   67.29
   0   1  13  938.61   67.19
   0   1  13  829.32   67.99
   1  -1  13   87.99    8.00
  -1   1  13   78.49    7.70
  -1  -1  13   91.19    8.00
   1   1  13   84.29    8.40
   1   1  13   88.39    8.00
  -2   1  13   99.49    9.30
   2  -1  13  113.59    9.70
  -2  -1  13  118.99    9.70
   2   1  13   96.89    9.90
   2   1  13  114.79    9.70
   3  -1  13    2.20    1.60
   3  -1  13    1.20    1.70
  -3   1  13    2.30    1.50
  -3  -1  13    3.90    1.70
   3   1  13    5.30    1.70
   3   1  13    4.00    2.00
  -4   1  13  306.77   23.30
   4  -1  13  304.87   23.30
   4   1  13  311.97   23.50
   4   1  13  245.28   24.00
   5  -1  13   84.89    8.20
   5  -1  13   79.09    7.80
   5   1  13   76.29    8.10
   5   1  13   91.79    8.20
   6  -1  13  435.26   34.30
   6   1  13  444.06   34.50
   0   2  13   -0.20    1.60
   0  -2  13    2.40    1.60
   0   2  13   -0.30    1.40
   1  -2  13   13.50    2.80
  -1   2  13    9.50    2.10
   1   2  13   13.60    3.10
   1   2  13    8.20    2.30
  -1  -2  13   15.60    3.00
  -2   2  13  657.93   51.39
   2  -2  13  709.13   51.79
  -2  -2  13  701.53   51.79
   2   2  13  731.83   51.89
   2   2  13  627.64   52.09
  -3   2  13   73.09    7.10
   3  -2  13   77.99    7.70
  -3  -2  13   79.09    7.60
   3   2  13   79.59    7.50
   3   2  13   75.39    7.80
  -4   2  13  369.26   29.00
   4  -2  13  429.26   29.70
   4   2  13  333.97   29.30
   5  -2  13   15.30    3.10
   5  -2  13   20.90    3.70
   5   2  13   19.00    3.60
   0  -3  13 1052.69   78.39
   0   3  13 1049.89   78.19
   1  -3  13   91.89    8.00
  -1   3  13   80.89    8.60
  -1   3  13   81.29    7.50
  -1  -3  13   85.79    7.90
   1   3  13   74.89    8.30
   1   3  13   81.69    7.70
  -2   3  13  157.18   12.90
   2  -3  13  156.48   13.30
   2   3  13  172.98   13.50
   2   3  13  138.59   13.50
  -2  -3  13  163.28   13.50
   3  -3  13   99.29    8.50
  -3   3  13   80.99    7.70
   3   3  13   91.89    8.40
   3   3  13   83.29    8.40
  -3  -3  13   81.79    8.40
   4  -3  13  190.88   16.40
  -4   3  13  182.98   15.20
   4   3  13  190.98   16.00
   4   3  13  186.48   15.80
   5  -3  13   44.90    5.40
   5   3  13   42.70    5.40
   5   3  13   45.10    5.50
   0   4  13    0.30    1.20
   0   4  13    4.40    2.00
   0  -4  13    0.70    1.50
   1  -4  13   49.70    5.60
  -1   4  13   48.00    4.90
  -1   4  13   38.50    5.60
   1   4  13   52.99    5.20
   1   4  13   47.90    7.90
  -1  -4  13   45.70    5.30
  -2   4  13  451.45   34.70
   2  -4  13  499.55   35.30
  -2  -4  13  440.26   35.40
   2   4  13  486.15   35.30
   2   4  13  409.76   35.50
  -3   4  13   63.59    6.20
   3  -4  13   68.59    6.80
   3   4  13   71.39    6.80
   3   4  13   54.39    6.70
  -4   4  13  329.37   25.40
   4   4  13  287.17   26.10
   4   4  13  371.06   26.40
   5  -4  13    4.60    2.30
   5   4  13    5.80    2.50
   0  -5  13  862.71   65.89
   0   5  13  891.61   65.49
  -1   5  13   72.69    7.30
   1  -5  13   61.09    8.40
  -1   5  13   65.59    6.20
  -1  -5  13   61.99    6.80
   1   5  13   63.79    7.20
  -2   5  13   85.69    7.70
   2  -5  13   88.29    8.40
  -2   5  13   75.29    9.10
  -2  -5  13   97.19    8.80
   2   5  13   77.39    8.60
   2   5  13   98.09    8.40
  -3   5  13    0.90    1.60
   3  -5  13    3.50    1.90
   4  -5  13  145.29   12.10
   4   5  13  123.59   12.30
   4   5  13  143.79   12.40
   5  -5  13   40.10    5.10
   5   5  13   38.30    5.20
   0  -6  13    2.10    2.00
   0   6  13    2.80    1.40
   1  -6  13   10.80    2.70
  -1   6  13   10.80    2.30
  -1   6  13    7.90    4.40
   1   6  13   13.20    2.60
   1   6  13    5.70    2.90
   2  -6  13  480.25   36.00
  -2   6  13  425.66   33.70
  -2  -6  13  418.76   34.60
   2   6  13  466.25   34.50
   3  -6  13   66.19    7.40
  -3   6  13   67.09    6.10
   3   6  13   58.19    7.00
   3   6  13   65.59    6.90
   4  -6  13  189.38   15.90
   4   6  13  192.08   16.30
   0  -7  13  407.46   32.40
   0   7  13  419.96   31.80
  -1   7  13   64.99    5.70
   1  -7  13   51.69    6.00
  -1   7  13   45.60    6.30
  -1  -7  13   43.90    6.20
   1   7  13   65.89    6.00
   1   7  13   43.90    6.20
  -2   7  13   43.90    4.20
  -2   7  13   26.60    5.30
   2  -7  13   33.10    4.60
   2   7  13   38.90    6.00
   2   7  13   31.00    5.10
   3  -7  13    5.40    2.30
   3   7  13    6.10    2.40
   3   7  13    8.40    2.50
   0   8  13    0.50    1.50
   0  -8  13    0.00    1.80
   0   8  13    3.10    2.20
  -1   8  13    1.40    1.80
   1  -8  13   -0.20    1.90
  -1   8  13    1.00    1.80
   1   8  13    3.30    2.10
   1   8  13    0.40    1.60
  -1   8 -13    4.40    2.20
  -2   8  13  151.28   12.40
   2  -8  13  155.88   13.30
   2   8 -13  152.38   13.90
  -2   8 -13  148.19   12.60
   2   8  13  154.38   13.10
   0   0  14  723.13   54.49
   1   0  14   93.19    8.70
  -1   0  14   95.09    8.60
   2   0  14   59.39    7.00
  -2   0  14   67.99    6.60
   2   0  14   74.29    6.90
   3   0  14   -2.50    1.50
  -3   0  14    0.10    1.40
   3   0  14   -0.70    1.60
   4   0  14  368.36   28.50
  -4   0  14  359.36   28.30
   4   0  14  356.06   28.50
   5   0  14   78.59    7.90
   5   0  14   75.39    7.70
   0  -1  14    0.60    1.50
   0   1  14    0.40    1.50
   1  -1  14   16.50    3.00
  -1   1  14   20.40    3.40
   1   1  14   18.00    3.30
   1   1  14   17.10    3.50
  -1  -1  14   18.00    3.30
  -2   1  14  349.17   26.30
   2  -1  14  350.16   26.50
  -2  -1  14  316.47   26.30
   2   1  14  303.07   26.70
   2   1  14  367.96   26.60
  -3   1  14   89.69    8.00
   3  -1  14   79.69    8.30
   3  -1  14   85.89   10.00
   3   1  14   74.19    9.50
  -3  -1  14   87.99    8.20
   3   1  14   89.89    8.50
   4  -1  14  384.96   34.10
  -4   1  14  475.45   34.40
   4   1  14  509.05   34.80
   4   1  14  410.06   34.50
   5  -1  14   14.90    3.10
   5   1  14    9.90    2.90
   0  -2  14  642.14   46.60
   0   2  14  562.24   47.30
   0   2  14  628.14   46.40
   1  -2  14   93.09    8.50
  -1   2  14   92.39    8.40
  -1  -2  14   90.99    8.50
   1   2  14   82.79    8.90
   1   2  14   93.59    8.40
   2  -2  14  180.08   15.00
  -2   2  14  180.28   14.70
   2   2  14  179.68   14.90
  -2  -2  14  177.48   15.00
  -3   2  14   17.00    3.00
  -3  -2  14   19.00    3.70
  -4   2  14  171.78   14.70
   4  -2  14  177.08   15.00
   4   2  14  172.98   15.20
   4   2  14  188.68   15.30
   5  -2  14   67.79    7.00
   5   2  14   64.19    7.00
   5   2  14   61.59    7.00
   0   3  14    1.10    1.60
   0  -3  14    1.90    1.40
  -1   3  14   28.50    4.20
  -1   3  14   31.60    5.60
   1  -3  14   34.60    4.40
   1   3  14   32.80    4.30
  -1  -3  14   33.70    4.90
   1   3  14   30.20    5.00
  -2   3  14  412.76   30.80
   2  -3  14  422.46   31.20
   2   3  14  347.57   31.40
  -2  -3  14  391.66   31.20
   2   3  14  423.06   31.20
  -3   3  14   59.89    6.10
   3  -3  14   71.69    7.40
   3   3  14   69.29    7.10
   3   3  14   60.69    6.90
   4  -3  14  280.17   21.80
  -4   3  14  263.87   21.40
   4   3  14  246.48   22.40
   4   3  14  290.67   22.20
   5  -3  14    8.30    2.50
   5   3  14    7.60    2.40
   0   4  14  931.61   68.29
   0  -4  14  893.91   68.59
   1  -4  14  105.59   10.10
  -1   4  14  112.29    9.60
  -1  -4  14  104.39   10.30
   1   4  14  117.89    9.90
  -2   4  14  114.49    9.40
   2   4  14   86.19   10.00
   2   4  14  124.29   10.10
  -2  -4  14  101.29   11.50
   3  -4  14   26.90    4.10
  -3   4  14   24.60    3.60
   3   4  14   20.10    4.50
  -3  -4  14   27.30    4.50
   3   4  14   27.20    4.20
   4  -4  14  112.69   10.60
  -4   4  14  115.49   10.20
   4   4  14  137.49   11.20
   4   4  14  108.09   11.00
   0   5  14   -0.40    1.70
   0  -5  14    2.60    1.40
   0   5  14   -0.90    1.30
   1  -5  14   29.60    5.90
  -1   5  14   15.40    3.90
  -1   5  14   30.10    3.80
   1   5  14   21.50    3.60
   1   5  14   19.30    4.20
  -1  -5  14   28.10    4.10
   2  -5  14  286.17   22.40
  -2   5  14  279.77   21.70
   2   5  14  237.98   22.60
  -2  -5  14  308.77   22.80
  -3   5  14   59.29    5.80
   3  -5  14   64.89    6.60
   3   5  14   63.49    6.50
   3   5  14   44.60    6.40
   4  -5  14  250.07   20.30
   4   5  14  246.78   20.50
   0  -6  14  445.96   35.10
   0   6  14  453.55   34.50
   1  -6  14   39.30    5.30
  -1   6  14   41.70    4.60
   1   6  14   47.00    5.10
   1   6  14   32.60    5.70
  -1  -6  14   38.30    5.20
  -2   6  14   48.40    5.10
   2  -6  14   45.90    5.60
  -2   6  14   37.50    6.60
  -2  -6  14   46.20    5.90
   2   6  14   39.10    6.30
   2   6  14   51.49    5.60
   3  -6  14   12.60    3.10
  -3   6  14   11.50    2.40
   3   6  14   11.80    3.10
   3   6  14    5.00    2.60
   0  -7  14    1.60    2.10
   0   7  14    2.10    1.60
   0   7  14    0.20    2.00
  -1   7  14    9.40    3.20
   1  -7  14   12.20    3.10
  -1   7  14   15.50    2.70
   1   7  14    7.50    2.80
   1   7  14    8.40    2.50
  -1  -7  14   13.60    3.40
   2  -7  14  158.38   13.40
  -2   7  14  144.59   12.50
   2   7  14  157.28   13.30
   0   0  15   -0.20    1.60
  -1   0  15    8.30    2.50
   1   0  15   11.00    2.40
   2   0  15  245.28   19.20
  -2   0  15  222.28   18.60
   2   0  15  223.28   19.40
   3   0  15   88.49    9.50
   3   0  15  103.29    9.40
  -3   0  15  105.69    9.30
  -4   0  15  438.26   35.40
   0  -1  15  707.03   53.59
   0   1  15  707.03   53.39
   1  -1  15   48.70    8.10
  -1   1  15   41.90    5.00
  -1  -1  15   41.70    5.00
   1   1  15   46.30    5.10
   1   1  15   29.30    5.40
  -2   1  15   66.29    6.50
   2  -1  15   62.49    6.70
  -2  -1  15   70.69    6.90
   2   1  15   57.59    7.00
   3  -1  15   -1.20    1.60
  -3   1  15    2.40    1.70
   3   1  15    2.80    1.70
   3   1  15    1.00    2.00
  -3  -1  15    2.70    3.10
   4  -1  15  217.68   19.40
   4  -1  15  238.98   19.50
  -4   1  15  239.38   19.10
   4   1  15  252.77   19.50
   4   1  15  225.18   19.50
   0  -2  15    0.70    2.80
   0   2  15   -3.90    1.80
   0   2  15   -0.70    1.30
  -1   2  15   46.70    5.50
   1  -2  15   47.50    8.10
   1   2  15   48.30    6.20
   1   2  15   49.70    5.60
  -1  -2  15   49.10    8.20
  -2   2  15  307.97   24.40
   2  -2  15  325.27   24.80
   2   2  15  338.57   24.90
   2   2  15  269.57   25.00
  -3   2  15   87.49    7.80
   3  -2  15   78.29    8.00
   3   2  15   83.59    8.20
   3   2  15   72.59    8.20
  -3  -2  15   78.19    8.00
  -4   2  15  301.87   25.30
   4  -2  15  334.07   25.80
   4   2  15  330.57   25.80
   0  -3  15  781.12   58.29
   0   3  15  759.42   57.89
  -1   3  15   71.49    6.70
   1  -3  15   66.29    7.00
   1   3  15   68.09    6.90
   1   3  15   56.89   10.00
  -1  -3  15   63.09    7.00
  -2   3  15  101.99    9.70
   2  -3  15  112.69   10.20
  -2  -3  15  113.79   10.30
   2   3  15  116.79   10.10
   3  -3  15    0.20    2.00
  -3   3  15   -1.10    1.50
  -3  -3  15    2.70    2.10
   3   3  15    2.80    1.90
   3   3  15   -2.60    1.70
   4  -3  15  133.39   10.90
  -4   3  15  112.39   10.20
   4   3  15  102.49   10.70
   4   3  15  112.59   10.80
   0   4  15    0.00    1.60
   0  -4  15    1.40    1.60
   0   4  15    3.20    2.30
  -1   4  15   15.80    3.90
  -1   4  15   17.40    3.30
   1  -4  15   20.50    3.70
  -1  -4  15   21.20    3.80
   1   4  15   17.20    4.10
   1   4  15   22.20    4.20
  -2   4  15  353.96   28.10
  -2  -4  15  339.07   28.70
   2   4  15  397.16   28.70
   3  -4  15   75.49    7.60
  -3   4  15   66.19    6.90
  -3  -4  15   83.79    8.00
   3   4  15   82.29    7.90
   3   4  15   56.19    7.50
   0  -5  15  558.24   44.20
   0   5  15  592.44   43.90
  -1   5  15   47.30    5.10
   1  -5  15   42.70    5.60
  -1   5  15   41.40    6.50
  -1  -5  15   49.80    5.90
   1   5  15   38.50    6.40
   2  -5  15   58.49    6.40
  -2   5  15   57.19    5.90
   2   5  15   59.49    6.40
  -2  -5  15   51.79    6.60
   2   5  15   44.50    6.50
  -3   5  15    3.60    2.00
   3  -5  15    6.70    2.40
   3   5  15    8.20    2.50
   0  -6  15    3.10    2.00
   0   6  15    1.70    2.10
   0   6  15   -1.50    1.50
  -1   6  15   14.60    3.80
   1  -6  15   20.60    4.10
  -1   6  15   23.50    3.40
   1   6  15   20.60    4.40
  -1  -6  15   21.10    4.10
   1   6  15   25.40    3.80
  -2   6  15  138.89   11.30
   2  -6  15  129.09   11.80
  -2  -6  15  121.89   11.90
   2   6  15  134.79   11.80
   0   0  16  450.75   34.90
   1   0  16   36.40    4.90
  -1   0  16   38.20    4.80
  -2   0  16   72.49    7.80
   2   0  16   82.99    8.00
   3   0  16    4.70    2.10
   3   0  16    1.90    2.60
  -3   0  16    2.00    1.80
   0   1  16    1.80    1.90
   0  -1  16    1.10    1.70
  -1   1  16   65.09    9.00
   1  -1  16   65.99    7.20
   1   1  16   69.49    7.10
  -1  -1  16   63.29    6.90
   2  -1  16  274.37   21.80
  -2  -1  16  254.27   21.70
   2   1  16  280.07   21.90
   3  -1  16   84.39    8.70
  -3   1  16  105.59   10.40
  -3  -1  16   80.39    8.60
   3   1  16   94.29    8.90
   0   2  16  585.54   46.00
   0  -2  16  619.04   46.20
   1  -2  16   56.19    6.10
   1   2  16   48.50    6.00
  -1  -2  16   56.99    6.40
  -2   2  16   48.50    6.30
   2  -2  16   66.49    6.80
   2   2  16   53.99    6.90
   2   2  16   62.09    6.70
  -2  -2  16   64.39    6.60
  -3   2  16    2.70    2.10
   3  -2  16    2.60    2.20
   3   2  16    1.70    1.80
   3   2  16    3.10    2.40
   0   3  16    1.70    2.40
   0  -3  16    0.70    1.50
   0   3  16    1.40    1.50
  -1   3  16   57.39    7.70
   1  -3  16   70.69    7.20
   1   3  16   49.99    7.20
  -1  -3  16   77.39    7.50
   1   3  16   71.29    7.00
  -2   3  16  333.17   27.60
   2  -3  16  357.56   28.20
  -2  -3  16  355.46   28.30
   2   3  16  376.66   28.20
   3   3  16   90.59    9.00
   0  -4  16  418.76   32.80
   0   4  16  416.46   32.50
   1  -4  16   58.69    6.40
  -1   4  16   48.20    6.10
   1   4  16   50.39    6.00
  -1  -4  16   58.89    6.50
   1   4  16   44.70    7.00
   2  -4  16   86.99    9.10
  -2   4  16   70.59    6.70
   2   4  16   69.39    6.90
  -2  -4  16   57.29    7.10
   2   4  16   47.60    6.80
   0   5  16   -1.20    1.60
   0  -5  16    3.50    2.00
   1  -5  16   26.50    4.50
  -1   5  16   22.00    5.20
   1   5  16   26.50    4.10
  -1  -5  16   24.30    4.20
   0   0  17    2.30    2.20
   1   0  17   52.19    6.20
  -1   0  17   47.30    5.80
  -2   0  17  241.18   19.80
   0  -1  17  341.97   26.80
   0   1  17  327.77   26.60
  -1   1  17   40.70    5.30
   1  -1  17   47.10    5.70
   1   1  17   42.10    5.50
  -1  -1  17   38.30    5.20
   0  -2  17    0.30    1.80
   0   2  17   -0.40    1.80
  -1   2  17   29.90    4.50
   1  -2  17   30.10    4.70
   1   2  17   38.10    4.90
  -1  -2  17   26.80    4.70
   0   0   0    0.00    0.00

_computing_structure_solution     'SHELXT 2018/2 (Sheldrick, 2018)'
;
_shelx_hkl_checksum                94416
_shelx_fab_file
;
0 0 2 20.2473 2.7070
0 0 4 -13.4094 -2.6787
0 0 6 20.2833 2.6157
0 0 8 9.8168 -2.4849
0 0 10 0.8742 2.3325
0 0 12 2.2400 -2.1108
0 0 14 3.8292 1.8174
0 0 16 0.8997 -1.5837
0 1 1 -40.6373 -0.4170
0 1 3 -37.5850 -0.4234
0 1 5 -1.7227 0.2738
0 1 7 -12.5454 -0.2948
0 1 9 -10.1299 0.2967
0 1 11 -2.4886 -0.2028
0 1 13 0.1533 0.1892
0 1 15 -3.2607 -0.2686
0 1 17 -2.3234 -0.4880
0 2 0 -56.3140 -0.6071
0 2 2 -18.2236 0.6620
0 2 4 0.4900 -0.7836
0 2 6 -4.2291 0.7216
0 2 8 -4.0437 -0.8006
0 2 10 -0.4878 0.7201
0 2 12 -1.3251 -0.5442
0 2 14 -4.6013 0.7055
0 2 16 0.0699 -0.1219
0 3 1 5.6506 -0.3220
0 3 3 7.6321 0.0879
0 3 5 4.3884 -0.0026
0 3 7 3.3228 0.0338
0 3 9 8.6826 -0.0678
0 3 11 2.1961 -0.0254
0 3 13 -1.1468 -0.0136
0 3 15 2.6105 0.2098
0 4 0 4.5707 -0.2249
0 4 2 9.9529 0.2276
0 4 4 0.7000 -0.2756
0 4 6 8.0094 0.3618
0 4 8 8.8829 -0.3490
0 4 10 -3.1375 0.3675
0 4 12 -2.3704 -0.3394
0 4 14 2.0761 0.0927
0 4 16 -0.8515 -0.8924
0 5 1 -1.7632 -0.2692
0 5 3 -8.4780 0.1883
0 5 5 4.2869 -0.1238
0 5 7 -1.8036 0.1204
0 5 9 -8.5782 -0.1280
0 5 11 -2.0656 0.0966
0 5 13 1.9724 0.0267
0 5 15 -1.5007 0.2935
0 6 0 -8.4787 -0.0866
0 6 2 -2.7780 0.0303
0 6 4 3.0623 -0.0472
0 6 6 -3.8888 0.1213
0 6 8 -4.2329 -0.1256
0 6 10 2.5986 0.1704
0 6 12 2.9914 -0.2059
0 6 14 -0.2572 -0.0009
0 7 1 6.3532 -0.1632
0 7 3 3.4561 0.1677
0 7 5 -3.6959 -0.1242
0 7 7 0.9155 0.0879
0 7 9 4.5656 -0.0845
0 7 11 0.6222 0.1227
0 7 13 -1.3598 0.0614
0 8 0 5.8310 -0.0121
0 8 2 -2.1070 -0.0189
0 8 4 -4.2146 0.0371
0 8 6 4.9053 -0.0010
0 8 8 2.7832 -0.0300
0 8 10 -1.4363 0.0031
0 8 12 -0.6981 -0.1855
0 9 1 -1.8395 -0.1126
0 9 3 -0.2663 0.1200
0 9 5 2.8183 -0.0789
0 9 7 -1.6953 0.0055
0 9 9 -2.2222 0.0749
0 9 11 0.5303 0.1432
0 10 0 -1.6969 0.0257
0 10 2 0.5987 -0.0276
0 10 4 0.9187 -0.0207
0 10 6 -1.3745 -0.0217
0 10 8 -0.9554 -0.1256
0 10 10 0.7357 -0.1684
0 11 1 0.6087 -0.1620
0 11 3 -0.4897 0.0950
0 11 5 -1.1584 -0.1519
0 11 7 -0.0218 -0.2400
0 11 9 0.3596 0.4530
0 12 0 -1.5719 0.0349
0 12 2 -0.0255 -0.0955
0 12 4 0.9017 -0.1693
0 12 6 0.2438 0.4658
0 13 1 0.4066 -0.4478
0 13 3 0.2613 0.4043
1 0 1 60.8114 0.2564
1 0 2 -34.5437 -0.4290
1 0 3 -7.2628 0.0804
1 0 4 24.5783 0.1762
1 0 5 2.0354 -0.1226
1 0 6 6.8404 -0.4802
1 0 7 11.2844 0.3537
1 0 8 3.6191 0.4189
1 0 9 0.6185 -0.2626
1 0 10 2.3864 -0.5864
1 0 11 1.3738 0.4570
1 0 12 3.3609 0.6038
1 0 13 4.3399 -0.3561
1 0 14 3.5774 -0.6133
1 0 15 2.2759 0.5045
1 0 16 0.5391 0.4977
1 0 17 -1.2938 -0.5086
1 1 1 -6.7222 0.0329
1 1 2 -51.6240 -0.1155
1 1 3 40.7257 0.2140
1 1 4 -16.0465 0.0657
1 1 5 7.6705 -0.0390
1 1 6 -8.0035 -0.0049
1 1 7 3.4044 0.0051
1 1 8 -7.7049 -0.0486
1 1 9 1.9202 -0.0942
1 1 10 -2.2023 0.1017
1 1 11 1.9313 0.0981
1 1 12 1.7399 0.0476
1 1 13 0.3209 0.1140
1 1 14 -1.0828 0.1559
1 1 15 -1.7654 0.2156
1 1 16 -3.3819 -0.2922
1 1 17 0.0853 0.4514
1 2 1 -41.7655 0.2562
1 2 2 16.3620 0.1250
1 2 3 -5.6493 -0.2103
1 2 4 -5.2657 0.5071
1 2 5 -1.7077 -0.0778
1 2 6 -7.2076 0.0949
1 2 7 2.7890 -0.0114
1 2 8 -2.9969 0.2135
1 2 9 -2.5875 -0.2422
1 2 10 -1.4881 -0.2416
1 2 11 0.4148 0.0483
1 2 12 -3.2896 0.0576
1 2 13 -3.2070 -0.0939
1 2 14 -3.0079 -0.3534
1 2 15 -2.9459 0.1868
1 2 16 -0.4684 -0.0575
1 2 17 1.4777 0.1811
1 3 1 -7.1645 -0.2836
1 3 2 6.2842 -0.1081
1 3 3 -8.8162 -0.1139
1 3 4 9.6124 -0.0254
1 3 5 -9.9442 0.0124
1 3 6 5.6894 -0.0407
1 3 7 -0.2042 0.0672
1 3 8 0.8946 -0.0392
1 3 9 -0.1999 0.0999
1 3 10 4.8237 -0.0665
1 3 11 -2.2403 -0.0186
1 3 12 -0.9709 -0.1107
1 3 13 -0.0331 -0.0910
1 3 14 -0.1962 -0.0264
1 3 15 1.5767 -0.3814
1 3 16 1.8014 -0.2638
1 4 1 7.6874 0.3146
1 4 2 1.2334 -0.5152
1 4 3 7.8581 -0.1244
1 4 4 0.9318 -0.1427
1 4 5 1.1326 0.1774
1 4 6 5.9772 -0.2738
1 4 7 5.5529 0.1810
1 4 8 0.8405 -0.0377
1 4 9 1.7229 0.0779
1 4 10 -0.2976 -0.0951
1 4 11 -3.3101 0.2228
1 4 12 2.4376 0.1671
1 4 13 -0.2700 0.0758
1 4 14 2.2423 -0.0082
1 4 15 0.8015 -0.1048
1 4 16 0.0717 0.4611
1 5 1 1.7838 0.1995
1 5 2 -6.0994 0.0646
1 5 3 4.9347 0.0098
1 5 4 -1.4345 0.0057
1 5 5 1.4252 0.0234
1 5 6 2.6742 0.0531
1 5 7 -0.5569 -0.0648
1 5 8 -5.6039 0.0614
1 5 9 0.6764 0.0624
1 5 10 -3.7805 0.0447
1 5 11 1.6825 -0.0160
1 5 12 1.0204 0.0908
1 5 13 -0.1132 0.0691
1 5 14 0.1083 0.3942
1 5 15 -1.3830 -0.2779
1 5 16 -1.0365 0.3857
1 6 1 -5.9103 0.0603
1 6 2 2.3210 0.2051
1 6 3 3.7139 -0.2153
1 6 4 -2.1898 0.3378
1 6 5 -0.7357 0.0541
1 6 6 1.3432 0.0979
1 6 7 -5.5041 -0.0899
1 6 8 1.4439 0.0754
1 6 9 0.8889 -0.1649
1 6 10 -0.1283 -0.0117
1 6 11 3.6938 -0.0911
1 6 12 -1.9422 0.0396
1 6 13 0.4339 -0.1381
1 6 14 -0.8560 -0.1325
1 6 15 0.4397 -0.3109
1 7 1 0.8394 -0.1505
1 7 2 6.2210 -0.1161
1 7 3 -2.3254 -0.0914
1 7 4 -2.7374 -0.1543
1 7 5 0.0783 0.0550
1 7 6 -2.4799 0.0131
1 7 7 1.3536 -0.0318
1 7 8 4.4049 -0.0135
1 7 9 -0.8797 0.0471
1 7 10 2.3275 -0.0227
1 7 11 -1.1336 -0.0741
1 7 12 -1.2841 -0.1190
1 7 13 0.9116 0.1190
1 7 14 -0.8139 0.1581
1 8 1 1.6249 0.0203
1 8 2 -0.6651 -0.2336
1 8 3 -4.5206 -0.0711
1 8 4 -0.3390 -0.1510
1 8 5 0.7079 0.1016
1 8 6 2.1531 -0.1515
1 8 7 4.1719 -0.0399
1 8 8 -1.5092 -0.0282
1 8 9 -0.2280 -0.0269
1 8 10 -0.7189 0.0850
1 8 11 -1.5035 0.0406
1 8 12 0.7043 0.0437
1 8 13 -0.7789 0.0172
1 9 1 1.4511 0.1188
1 9 2 -0.7898 0.0247
1 9 3 -0.5110 0.0672
1 9 4 1.3895 0.0308
1 9 5 1.2671 0.0080
1 9 6 0.0748 0.1242
1 9 7 -1.0316 -0.0835
1 9 8 -1.5356 0.0118
1 9 9 0.0127 -0.0257
1 9 10 -1.1210 0.1484
1 9 11 0.5495 -0.0870
1 9 12 -0.0789 -0.0047
1 10 1 -0.4428 -0.0857
1 10 2 -0.1123 0.2412
1 10 3 0.3930 -0.0156
1 10 4 0.0482 0.1874
1 10 5 -0.0913 0.0823
1 10 6 -0.3553 0.0463
1 10 7 -0.3351 -0.0124
1 10 8 -0.1320 0.0225
1 10 9 -0.0712 -0.0598
1 10 10 0.1142 0.1655
1 10 11 0.1809 -0.0874
1 11 1 -0.2159 -0.1646
1 11 2 0.2715 -0.1143
1 11 3 -1.0107 0.0145
1 11 4 -0.1198 0.0619
1 11 5 0.3052 0.0129
1 11 6 -0.3316 0.0504
1 11 7 0.1302 0.0676
1 11 8 0.5389 -0.0873
1 11 9 0.4271 -0.0582
1 12 1 -0.4106 -0.0185
1 12 2 0.3766 -0.0839
1 12 3 0.7449 0.0345
1 12 4 0.3912 -0.0602
1 12 5 -0.3010 0.0617
1 12 6 -0.1115 -0.2241
1 12 7 -0.1044 0.0991
1 13 1 -0.2832 -0.0837
1 13 2 0.3425 -0.0666
1 13 3 0.0090 0.0238
2 0 0 21.3212 1.2129
2 0 1 -22.0484 -1.0622
2 0 2 26.6014 -1.1404
2 0 3 -0.5956 2.6534
2 0 4 -5.9476 1.0935
2 0 5 22.9437 -2.2179
2 0 6 1.1875 -1.1493
2 0 7 8.7806 2.1047
2 0 8 5.3711 0.9749
2 0 9 0.4192 -2.0694
2 0 10 -2.4098 -0.9963
2 0 11 4.6193 1.7650
2 0 12 3.0793 0.7897
2 0 13 5.2801 -1.5922
2 0 14 1.7550 -0.7841
2 0 15 2.6550 1.4585
2 0 16 -0.2659 0.5434
2 0 17 0.7107 -1.1911
2 1 0 -5.9848 1.0996
2 1 1 -3.0908 -0.3626
2 1 2 25.2871 1.4010
2 1 3 -23.6244 0.3302
2 1 4 29.0339 -0.2528
2 1 5 -4.1896 -0.1926
2 1 6 4.4560 0.5888
2 1 7 -0.3841 0.2487
2 1 8 0.9073 -0.5148
2 1 9 -2.4464 -0.2355
2 1 10 4.9163 0.4958
2 1 11 3.8499 0.2329
2 1 12 2.9024 -0.5549
2 1 13 0.9614 -0.2573
2 1 14 -1.4259 0.4272
2 1 15 -1.0870 0.3206
2 1 16 -1.2352 0.0525
2 2 0 -13.5794 -1.0988
2 2 1 8.0951 -0.8578
2 2 2 -16.6083 -0.6063
2 2 3 2.4677 0.7330
2 2 4 0.3562 0.3139
2 2 5 -11.0442 -0.4663
2 2 6 0.2150 -0.1961
2 2 7 -5.9998 0.7679
2 2 8 -0.0693 0.4647
2 2 9 -1.2335 -0.5860
2 2 10 1.8875 -0.1861
2 2 11 -3.3773 0.5378
2 2 12 -1.2271 0.3828
2 2 13 -6.1752 -0.5230
2 2 14 -2.1365 -0.1797
2 2 15 -1.4817 0.5367
2 2 16 -0.4160 -0.1867
2 3 0 -12.2646 -3.0191
2 3 1 -2.7133 -0.0305
2 3 2 -10.1632 -0.3013
2 3 3 3.9854 0.2042
2 3 4 -12.7078 -0.7285
2 3 5 0.4320 -0.1648
2 3 6 -4.1169 0.2143
2 3 7 0.9821 0.1394
2 3 8 1.4916 -0.1735
2 3 9 1.7438 -0.0290
2 3 10 -3.4191 0.4165
2 3 11 -0.9642 0.1912
2 3 12 -2.4762 -0.2205
2 3 13 -1.2315 -0.1396
2 3 14 2.5190 0.2413
2 3 15 0.1962 0.1454
2 3 16 1.5810 -0.6437
2 4 0 2.6331 1.2170
2 4 1 0.8450 -0.2715
2 4 2 3.0845 0.0340
2 4 3 -1.3993 0.1930
2 4 4 0.2862 0.2261
2 4 5 8.8149 -0.6625
2 4 6 2.2419 -0.2915
2 4 7 7.4532 0.2016
2 4 8 0.6138 0.0904
2 4 9 -1.8639 -0.4484
2 4 10 -2.0882 -0.2777
2 4 11 2.9675 0.4946
2 4 12 -1.8316 0.2471
2 4 13 3.9789 -0.1543
2 4 14 0.2042 -0.0132
2 4 15 0.2836 0.6008
2 4 16 0.0700 0.2766
2 5 0 -0.5085 2.0467
2 5 1 -3.8798 -0.2685
2 5 2 2.3531 1.0306
2 5 3 0.7118 0.1453
2 5 4 10.0836 -0.0865
2 5 5 2.8414 -0.1905
2 5 6 1.1371 0.2767
2 5 7 -0.3651 -0.0443
2 5 8 -3.5579 -0.2724
2 5 9 -1.5783 -0.1581
2 5 10 3.2263 -0.0185
2 5 11 -1.0033 -0.0221
2 5 12 0.8668 -0.2844
2 5 13 1.2658 -0.1293
2 5 14 -2.3739 0.2614
2 5 15 0.0166 0.1449
2 6 0 -3.8649 -0.8420
2 6 1 2.9798 -0.3017
2 6 2 3.6995 -0.3853
2 6 3 4.1069 0.5600
2 6 4 1.5121 0.2447
2 6 5 -4.0930 -0.1573
2 6 6 -1.9627 -0.0574
2 6 7 -1.8711 0.4902
2 6 8 -0.9222 0.2781
2 6 9 1.7458 -0.2179
2 6 10 1.1178 -0.1533
2 6 11 -2.0490 0.3304
2 6 12 2.3305 0.0801
2 6 13 -2.9657 -0.3838
2 6 14 0.0582 -0.2090
2 6 15 -0.1213 -0.3070
2 7 0 5.5231 -2.0662
2 7 1 2.3396 0.0132
2 7 2 -1.0017 -0.3344
2 7 3 -0.6428 0.0813
2 7 4 -5.9811 -0.4218
2 7 5 -2.5280 -0.0997
2 7 6 0.9942 0.2583
2 7 7 0.9307 0.1191
2 7 8 1.3390 -0.0323
2 7 9 1.6911 0.1449
2 7 10 -1.6529 0.1453
2 7 11 0.4505 0.2421
2 7 12 -0.3917 0.0566
2 7 13 -1.1433 0.1224
2 7 14 0.9955 0.1480
2 8 0 0.2231 0.9583
2 8 1 -4.4422 -0.1704
2 8 2 -2.4015 -0.0146
2 8 3 -2.1129 0.2005
2 8 4 -1.2770 0.1900
2 8 5 4.4235 -0.5668
2 8 6 1.9614 -0.3100
2 8 7 0.5744 0.2093
2 8 8 0.3417 0.0681
2 8 9 -1.3036 -0.3476
2 8 10 -1.1355 -0.2127
2 8 11 0.4842 0.1101
2 8 12 -0.8084 0.0093
2 8 13 1.1230 -0.2968
2 9 0 -2.0484 1.5716
2 9 1 -0.9977 -0.0467
2 9 2 1.6418 0.5991
2 9 3 1.1042 0.0353
2 9 4 2.5228 0.1091
2 9 5 0.8846 -0.0269
2 9 6 -1.0048 0.1933
2 9 7 -0.5881 -0.0485
2 9 8 -0.7450 -0.2697
2 9 9 -1.7874 -0.1435
2 9 10 0.8404 -0.1708
2 9 11 -0.0612 -0.0141
2 9 12 1.2972 0.4469
2 10 0 -0.1669 -0.5415
2 10 1 1.2566 -0.3642
2 10 2 0.6184 -0.3030
2 10 3 0.7405 0.4342
2 10 4 0.2061 0.1992
2 10 5 -1.2263 -0.2187
2 10 6 -0.4477 -0.1712
2 10 7 -0.6482 0.5731
2 10 8 -0.8199 0.2597
2 10 9 0.5772 -0.0429
2 10 10 1.3591 -0.0668
2 11 0 0.1931 -1.1845
2 11 1 -0.1344 0.1602
2 11 2 -0.2700 -0.3439
2 11 3 0.0775 -0.0422
2 11 4 -0.5034 -0.0221
2 11 5 -0.6242 0.1147
2 11 6 0.0561 0.1780
2 11 7 0.5634 0.0691
2 11 8 0.9207 -0.4760
2 11 9 1.2498 -0.2010
2 12 0 0.2757 0.5311
2 12 1 0.5957 -0.5074
2 12 2 -0.0348 -0.2189
2 12 3 0.5760 0.4906
2 12 4 -0.3791 0.2703
2 12 5 -0.5750 -0.6541
2 12 6 -0.0984 -0.3335
3 0 1 3.1151 -0.1357
3 0 2 -12.9781 -0.0393
3 0 3 4.4134 -0.0949
3 0 4 5.8148 -0.0253
3 0 5 -6.8023 0.3770
3 0 6 18.2883 -0.1236
3 0 7 -4.7090 -0.4452
3 0 8 -0.3108 0.0727
3 0 9 -3.9340 0.4911
3 0 10 1.3059 -0.1408
3 0 11 1.3700 -0.6663
3 0 12 5.3574 0.0820
3 0 13 1.6760 0.6533
3 0 14 2.3692 -0.0863
3 0 15 0.4242 -0.7137
3 0 16 1.4705 -0.0341
3 1 1 3.4263 -0.1536
3 1 2 -1.2532 0.4578
3 1 3 21.7406 0.0648
3 1 4 -6.3243 0.4755
3 1 5 15.5841 -0.0222
3 1 6 -0.4952 0.1527
3 1 7 -1.5244 -0.0372
3 1 8 2.8698 0.2438
3 1 9 5.0647 -0.0026
3 1 10 5.7355 -0.1482
3 1 11 6.0705 -0.1020
3 1 12 2.4152 -0.0057
3 1 13 0.7084 -0.1521
3 1 14 0.4684 -0.4301
3 1 15 -0.6032 0.2560
3 1 16 0.3257 -0.4040
3 2 1 0.8164 -0.5232
3 2 2 6.4383 -0.1503
3 2 3 0.9469 -0.1728
3 2 4 -4.7892 0.0512
3 2 5 2.8272 0.1256
3 2 6 -6.4943 0.0314
3 2 7 4.8688 0.0533
3 2 8 0.1835 0.0148
3 2 9 3.4439 0.3956
3 2 10 -0.9960 0.0197
3 2 11 -0.7236 -0.0514
3 2 12 -5.5108 0.1227
3 2 13 -0.9954 0.1692
3 2 14 -3.2114 0.0578
3 2 15 -0.1568 -0.3880
3 2 16 1.2866 -0.1684
3 3 1 -4.8778 -0.0050
3 3 2 -0.8829 -0.5297
3 3 3 -9.4093 -0.0073
3 3 4 -1.6140 -0.3675
3 3 5 -4.2442 0.0242
3 3 6 0.7766 -0.3628
3 3 7 -0.7174 0.0950
3 3 8 -0.8030 -0.0457
3 3 9 -2.4300 0.1164
3 3 10 -2.6581 0.0090
3 3 11 -5.0189 -0.0154
3 3 12 -1.0173 0.2867
3 3 13 0.0927 -0.1034
3 3 14 -0.5010 0.2300
3 3 15 2.4914 0.0484
3 3 16 -1.0654 0.4976
3 4 1 -2.7199 0.2036
3 4 2 -3.2758 -0.1205
3 4 3 -2.2763 0.0295
3 4 4 2.9029 0.0750
3 4 5 0.3580 -0.0984
3 4 6 5.1312 -0.0194
3 4 7 -3.5367 -0.2805
3 4 8 0.9527 -0.0301
3 4 9 -2.7877 -0.0071
3 4 10 -0.3499 0.0769
3 4 11 -0.6251 -0.2053
3 4 12 3.4223 0.1742
3 4 13 -0.5368 0.0285
3 4 14 1.7915 0.2859
3 4 15 0.4010 -0.1380
3 5 1 -2.5106 0.1424
3 5 2 1.2042 0.4138
3 5 3 5.2898 -0.1314
3 5 4 3.7577 0.4546
3 5 5 3.2413 -0.0518
3 5 6 -1.5227 0.1443
3 5 7 -1.5367 -0.0490
3 5 8 0.8556 0.0177
3 5 9 0.1559 -0.1407
3 5 10 0.4656 -0.1570
3 5 11 2.4146 -0.1402
3 5 12 0.1626 -0.0551
3 5 13 -0.2819 -0.0676
3 5 14 0.6797 -0.0311
3 5 15 -1.4932 0.0083
3 6 1 2.8626 -0.1692
3 6 2 5.4631 -0.0442
3 6 3 2.7045 0.0074
3 6 4 -1.9418 0.0511
3 6 5 -1.4962 0.2175
3 6 6 -2.7953 -0.0936
3 6 7 0.5612 0.1454
3 6 8 0.7603 -0.0064
3 6 9 0.3221 0.2817
3 6 10 0.5440 -0.0233
3 6 11 0.7271 -0.0960
3 6 12 -1.5224 -0.2645
3 6 13 0.0268 -0.1173
3 6 14 -0.9128 -0.2220
3 7 1 4.7849 0.2395
3 7 2 -1.4583 -0.4429
3 7 3 -5.9232 -0.0883
3 7 4 -1.1592 -0.2975
3 7 5 -0.4684 0.1076
3 7 6 0.5858 -0.2523
3 7 7 2.3705 0.0549
3 7 8 0.5792 -0.0319
3 7 9 -0.5971 -0.0110
3 7 10 0.2418 0.1153
3 7 11 -0.1944 0.1943
3 7 12 -0.2654 0.2033
3 7 13 0.6351 0.3094
3 8 1 -2.0384 0.2425
3 8 2 -5.6384 0.0520
3 8 3 0.0911 -0.0184
3 8 4 3.7761 -0.0179
3 8 5 0.4290 -0.0557
3 8 6 2.2148 -0.1254
3 8 7 -0.3264 -0.2273
3 8 8 -1.4496 0.1537
3 8 9 0.1817 -0.0277
3 8 10 0.6437 0.1690
3 8 11 0.0380 -0.1343
3 8 12 0.1731 -0.1788
3 9 1 -1.7235 0.1888
3 9 2 0.8020 0.3455
3 9 3 3.1138 -0.0627
3 9 4 0.3415 0.2930
3 9 5 -0.0445 0.1271
3 9 6 -0.0296 0.0858
3 9 7 -1.2687 -0.0839
3 9 8 0.4281 0.0179
3 9 9 0.1813 -0.1559
3 9 10 -0.6649 0.0574
3 9 11 -0.2577 0.1085
3 10 1 0.8166 -0.1181
3 10 2 1.1803 0.0985
3 10 3 -0.1336 -0.1062
3 10 4 -0.1393 -0.0394
3 10 5 -0.0048 0.0894
3 10 6 -0.9399 -0.0478
3 10 7 -0.0133 -0.0099
3 10 8 -0.8209 0.2339
3 10 9 -0.1171 -0.0421
3 11 1 -0.1067 0.0390
3 11 2 -0.9416 -0.1805
3 11 3 0.0406 -0.0865
3 11 4 -0.1373 -0.1482
3 11 5 -0.2131 0.0288
3 11 6 0.3338 -0.2222
3 11 7 -0.4051 -0.1988
3 12 1 -0.5900 0.1094
3 12 2 0.1827 -0.0021
3 12 3 0.3590 -0.0848
3 12 4 -0.0716 -0.1258
4 0 0 -13.3196 1.7711
4 0 1 -4.7869 0.8408
4 0 2 -2.9088 -1.2813
4 0 3 -5.5998 -2.1935
4 0 4 1.2084 1.6147
4 0 5 9.5284 1.8391
4 0 6 -10.5791 -1.3724
4 0 7 0.9415 -1.7447
4 0 8 -9.8024 1.2700
4 0 9 -1.8110 1.6567
4 0 10 1.0213 -1.2860
4 0 11 3.2691 -1.5243
4 0 12 1.4795 1.0207
4 0 13 1.9228 1.3553
4 0 14 1.2763 -1.0634
4 0 15 1.0359 -1.1689
4 1 0 -0.6259 -1.0544
4 1 1 5.5005 -0.5187
4 1 2 4.6325 -1.1672
4 1 3 3.6148 0.4915
4 1 4 11.8837 0.4086
4 1 5 -6.2180 -0.3057
4 1 6 0.4402 -0.4562
4 1 7 1.5096 0.4370
4 1 8 1.8667 0.5316
4 1 9 9.1121 -0.3562
4 1 10 5.6074 -0.3313
4 1 11 3.0802 0.1503
4 1 12 1.4489 0.4611
4 1 13 1.4008 -0.4808
4 1 14 0.7219 -0.6392
4 1 15 0.9246 -0.4450
4 2 0 11.8995 -1.5424
4 2 1 1.8756 0.7098
4 2 2 7.0091 -0.9032
4 2 3 2.0185 -0.7026
4 2 4 -0.0980 0.3276
4 2 5 -3.8921 0.4854
4 2 6 7.2953 -0.4313
4 2 7 0.2850 -0.5802
4 2 8 7.6661 0.5119
4 2 9 1.8253 0.5238
4 2 10 -1.1489 -0.1864
4 2 11 -2.3627 -0.3328
4 2 12 -1.0560 0.3914
4 2 13 -1.4956 0.4533
4 2 14 0.1151 -0.4228
4 2 15 -1.1500 0.2098
4 3 0 0.1874 2.4620
4 3 1 -2.9398 -0.1090
4 3 2 -1.5443 0.2201
4 3 3 -5.1346 0.1111
4 3 4 -3.8822 0.4402
4 3 5 1.9233 -0.3397
4 3 6 0.0789 -0.3371
4 3 7 0.5655 0.0850
4 3 8 -0.1903 0.0628
4 3 9 -5.0216 -0.2421
4 3 10 -2.7911 -0.4678
4 3 11 -2.2267 0.2427
4 3 12 -1.6521 0.1587
4 3 13 -0.2694 0.1442
4 3 14 0.5715 -0.3536
4 3 15 -1.1647 0.4771
4 4 0 -8.7328 1.6305
4 4 1 -2.1769 0.2073
4 4 2 -4.7617 0.1886
4 4 3 -1.7537 -0.2550
4 4 4 0.0883 0.4281
4 4 5 2.2186 0.5399
4 4 6 -3.1605 -0.3043
4 4 7 0.0114 -0.2912
4 4 8 -4.9930 0.2043
4 4 9 -0.5824 0.2982
4 4 10 -0.2604 -0.2793
4 4 11 -0.5693 -0.3320
4 4 12 0.5981 0.0275
4 4 13 1.9716 -0.1113
4 4 14 0.2362 -0.3874
4 5 0 -5.0942 -1.7334
4 5 1 3.2403 -0.2125
4 5 2 0.9496 -0.7240
4 5 3 3.3228 0.2234
4 5 4 2.1813 0.0198
4 5 5 -0.9596 0.0133
4 5 6 -1.9663 -0.0782
4 5 7 0.0187 0.1276
4 5 8 -0.2569 0.3028
4 5 9 2.2165 -0.1999
4 5 10 0.0986 -0.1480
4 5 11 0.6844 0.1085
4 5 12 1.2152 0.2542
4 5 13 0.6475 0.1089
4 5 14 -1.5976 0.4687
4 6 0 6.2465 -1.3319
4 6 1 5.0510 0.2176
4 6 2 1.7597 -0.5532
4 6 3 0.9185 -0.4183
4 6 4 -1.3544 0.0633
4 6 5 -2.9768 0.1393
4 6 6 1.4509 -0.1379
4 6 7 0.7820 -0.3191
4 6 8 1.3027 0.3296
4 6 9 1.4529 0.3548
4 6 10 0.2143 -0.1555
4 6 11 -0.0176 -0.0534
4 6 12 -0.2065 -0.0651
4 6 13 -0.3046 0.0349
4 7 0 6.6346 1.8033
4 7 1 -3.0828 -0.1018
4 7 2 -0.8283 0.3009
4 7 3 -2.2245 0.0162
4 7 4 -2.1137 0.2370
4 7 5 2.0329 -0.1407
4 7 6 1.5594 -0.1736
4 7 7 0.2860 0.0371
4 7 8 0.8806 0.0028
4 7 9 -0.6437 -0.0285
4 7 10 -0.9326 -0.1737
4 7 11 -0.6181 0.1900
4 7 12 1.0583 0.0465
4 8 0 -4.5325 1.2049
4 8 1 -2.2630 0.0641
4 8 2 -0.2831 0.1676
4 8 3 -0.9012 -0.0876
4 8 4 2.1957 0.1560
4 8 5 1.0167 0.2781
4 8 6 -0.7913 -0.1473
4 8 7 -0.3539 -0.2274
4 8 8 -0.5332 0.0625
4 8 9 -1.2013 0.1020
4 8 10 0.4414 -0.2653
4 8 11 0.5888 -0.2511
4 9 0 -2.2512 -1.2002
4 9 1 2.2705 -0.2452
4 9 2 -0.7737 -0.5753
4 9 3 1.5734 0.2269
4 9 4 0.6331 0.1162
4 9 5 -0.7708 -0.0479
4 9 6 -0.1188 -0.1820
4 9 7 0.4303 0.1218
4 9 8 -0.4742 -0.0312
4 9 9 0.2321 0.1232
4 9 10 0.6317 0.4449
4 10 0 2.2225 -0.7540
4 10 1 0.8252 0.2585
4 10 2 0.0854 -0.3000
4 10 3 1.3994 -0.2713
4 10 4 -0.5042 0.1461
4 10 5 0.2499 0.1526
4 10 6 0.4179 0.1156
4 10 7 0.0905 -0.0697
4 10 8 -0.3416 -0.1341
4 11 0 0.3337 1.0889
4 11 1 -0.4130 -0.4188
4 11 2 -0.0215 -0.3508
4 11 3 0.0867 0.3086
4 11 4 -0.1476 0.6133
4 11 5 0.0181 -0.4920
4 11 6 0.0963 -0.4524
5 0 1 -3.1930 0.0548
5 0 2 -3.2506 0.4471
5 0 3 -1.3169 0.0012
5 0 4 1.9467 -0.0842
5 0 5 -3.2445 -0.0624
5 0 6 -0.7002 0.5377
5 0 7 -12.4549 0.0981
5 0 8 -1.8667 -0.3755
5 0 9 -1.7757 -0.1396
5 0 10 0.7375 0.5617
5 0 11 1.2006 0.1159
5 0 12 0.5577 -0.5758
5 0 13 0.3670 -0.4420
5 0 14 1.1872 0.4662
5 1 1 -0.1813 -0.2957
5 1 2 0.9759 -0.0975
5 1 3 2.6743 -0.2157
5 1 4 -2.4470 -0.1346
5 1 5 -0.2636 0.1228
5 1 6 -4.8267 -0.0588
5 1 7 0.7742 -0.0600
5 1 8 7.4422 0.0061
5 1 9 1.9992 0.2088
5 1 10 4.3643 0.0592
5 1 11 0.5853 -0.0400
5 1 12 1.1826 -0.1656
5 1 13 0.9852 0.3109
5 1 14 2.0806 -0.3000
5 2 1 5.4024 0.0778
5 2 2 0.0203 -0.3498
5 2 3 0.4903 0.0026
5 2 4 -0.6437 -0.5632
5 2 5 2.4388 -0.0220
5 2 6 1.7664 -0.1617
5 2 7 9.1549 0.0017
5 2 8 1.0222 -0.2455
5 2 9 1.7726 -0.0288
5 2 10 -0.0988 0.2021
5 2 11 -1.1696 0.1937
5 2 12 -0.0102 -0.0102
5 2 13 1.2830 -0.0031
5 2 14 -0.7228 0.0193
5 3 1 -0.2728 0.2335
5 3 2 -3.7869 0.1684
5 3 3 -0.1192 0.0526
5 3 4 0.9074 0.0594
5 3 5 2.0233 -0.0353
5 3 6 2.8286 0.0203
5 3 7 -0.2161 -0.2696
5 3 8 -2.7690 -0.1053
5 3 9 -1.0309 -0.1044
5 3 10 -4.1509 -0.1035
5 3 11 -0.8583 -0.0876
5 3 12 -0.1753 -0.1063
5 3 13 0.0226 0.2458
5 3 14 -0.8932 -0.0437
5 4 1 -3.2738 -0.0685
5 4 2 0.3218 0.5381
5 4 3 -1.1509 0.0313
5 4 4 0.2766 0.2796
5 4 5 -1.3553 0.0862
5 4 6 -1.6886 0.2987
5 4 7 -3.3144 0.1659
5 4 8 -1.1051 -0.0111
5 4 9 -2.0959 -0.0761
5 4 10 -0.1137 0.0190
5 4 11 1.2559 -0.0715
5 4 12 0.5625 -0.1405
5 4 13 0.0979 -0.1795
5 5 1 0.4122 -0.1957
5 5 2 -0.9387 -0.1350
5 5 3 -0.8076 0.0377
5 5 4 -0.1921 -0.1033
5 5 5 -0.5414 0.1935
5 5 6 -0.6540 -0.0078
5 5 7 -0.1412 0.1154
5 5 8 1.3240 0.0285
5 5 9 0.8578 0.1395
5 5 10 0.9389 0.1993
5 5 11 0.2846 0.0356
5 5 12 0.1708 0.2799
5 5 13 -0.3908 -0.1633
5 6 1 -0.0587 0.0920
5 6 2 0.2441 -0.3221
5 6 3 0.6489 -0.0681
5 6 4 0.5373 -0.3753
5 6 5 0.3705 -0.1772
5 6 6 0.0101 -0.1291
5 6 7 2.0493 0.0373
5 6 8 0.9739 0.0065
5 6 9 -0.0114 -0.3220
5 6 10 -0.0928 0.1541
5 6 11 0.4575 -0.3740
5 6 12 -0.4807 -0.0909
5 7 1 0.3290 0.1620
5 7 2 0.2011 0.1261
5 7 3 -0.3341 -0.0357
5 7 4 -0.0336 0.1736
5 7 5 -0.7171 -0.1345
5 7 6 0.6280 0.0463
5 7 7 -0.4234 -0.2499
5 7 8 -0.8795 0.1070
5 7 9 -0.3315 -0.1012
5 7 10 -0.1838 0.2782
5 7 11 -0.1782 0.1414
5 8 1 -0.6214 0.1521
5 8 2 0.5510 0.4111
5 8 3 0.2317 0.0054
5 8 4 0.3566 0.2286
5 8 5 0.6260 0.0082
5 8 6 -0.2559 0.0636
5 8 7 -0.2580 0.4173
5 8 8 -0.1892 -0.0267
5 8 9 0.1508 -0.0147
5 8 10 -0.5895 0.0755
5 9 1 0.3461 -0.1832
5 9 2 2.6332 -0.1384
5 9 3 0.3356 -0.0658
5 9 4 0.7062 -0.0686
5 9 5 -0.5657 0.1255
5 9 6 -0.5996 -0.3312
5 9 7 -0.3919 0.0663
5 9 8 0.2158 -0.0173
5 10 1 2.0303 0.2240
5 10 2 0.2690 -0.1413
5 10 3 -0.7317 -0.0728
5 10 4 -0.5041 -0.1095
5 10 5 -0.7601 -0.1010
5 10 6 0.3526 -0.1573
5 11 1 -1.0674 0.0313
5 11 2 -0.3763 -0.0189
6 0 0 -5.7082 -2.5364
6 0 1 -1.1723 0.2243
6 0 2 1.4879 1.9103
6 0 3 -1.6539 -0.5067
6 0 4 0.1398 -2.3323
6 0 5 -0.8745 0.4823
6 0 6 -6.1175 2.1179
6 0 7 -4.5187 -0.4187
6 0 8 -4.7413 -1.9135
6 0 9 2.8576 0.4318
6 0 10 0.5716 1.9234
6 0 11 1.2293 -0.4110
6 0 12 1.8390 -1.5674
6 0 13 -1.0060 0.3295
6 1 0 -2.1302 -0.2243
6 1 1 2.5322 0.6512
6 1 2 -2.8767 -0.2430
6 1 3 -0.4352 -0.6778
6 1 4 -0.4615 0.0908
6 1 5 -3.6971 0.4303
6 1 6 -1.0541 -0.0793
6 1 7 1.6564 -0.5892
6 1 8 3.5891 0.1349
6 1 9 5.0854 0.4338
6 1 10 -1.6316 0.0214
6 1 11 2.2127 -0.3027
6 1 12 -1.0168 -0.0465
6 1 13 1.6026 -0.4689
6 2 0 2.7293 2.2775
6 2 1 -0.7495 0.2363
6 2 2 0.7141 1.1548
6 2 3 2.3187 -0.1436
6 2 4 -1.0522 -0.4485
6 2 5 2.1163 0.0991
6 2 6 4.8167 0.5994
6 2 7 2.2689 -0.2017
6 2 8 3.5658 -0.6970
6 2 9 -1.5489 0.1497
6 2 10 -0.5078 0.6199
6 2 11 0.9706 -0.1795
6 2 12 0.5598 0.0089
6 3 0 2.4650 0.5306
6 3 1 -2.0244 0.2589
6 3 2 1.4320 0.0475
6 3 3 -1.6511 -0.2357
6 3 4 2.2555 0.1381
6 3 5 2.2559 0.4375
6 3 6 0.5924 -0.0117
6 3 7 -1.5694 -0.2219
6 3 8 -0.5196 0.0633
6 3 9 -2.9480 0.1522
6 3 10 -0.2302 0.1142
6 3 11 -1.8838 0.0618
6 3 12 -0.1508 0.1786
6 4 0 -3.3928 -2.3148
6 4 1 -2.0371 -0.0245
6 4 2 -0.1610 -0.3005
6 4 3 -0.5526 -0.1911
6 4 4 0.4371 -0.4867
6 4 5 -1.9059 -0.0036
6 4 6 -1.3951 0.4082
6 4 7 -0.8385 -0.2136
6 4 8 -0.8498 -0.3960
6 4 9 -1.1937 0.0439
6 4 10 -0.3145 0.1239
6 4 11 0.3709 -0.0945
6 4 12 1.4756 -0.9174
6 5 0 -1.7672 -0.3469
6 5 1 2.2339 0.3879
6 5 2 -2.1475 -0.0771
6 5 3 0.1886 -0.4649
6 5 4 -0.4448 0.1161
6 5 5 -1.6900 0.0861
6 5 6 0.4301 0.0774
6 5 7 -0.3264 -0.1098
6 5 8 0.4457 0.0528
6 5 9 1.1026 0.2993
6 5 10 0.6473 0.0206
6 5 11 0.4588 0.2700
6 6 0 4.5368 1.9478
6 6 1 -1.2392 0.0469
6 6 2 -0.7288 0.8402
6 6 3 2.6292 -0.1152
6 6 4 -2.8948 -0.0714
6 6 5 1.5814 0.1207
6 6 6 1.5206 0.2199
6 6 7 1.2757 -0.0469
6 6 8 1.8878 -0.5341
6 6 9 -0.2008 0.1124
6 6 10 -0.6833 -0.0861
6 7 0 0.2047 0.3822
6 7 1 -2.4658 0.1358
6 7 2 1.6737 0.0465
6 7 3 -2.3217 -0.0163
6 7 4 -0.4586 -0.0624
6 7 5 1.6511 0.1595
6 7 6 -1.5051 -0.0517
6 7 7 0.3424 -0.1846
6 7 8 -0.9324 -0.0091
6 7 9 -1.1818 0.6426
6 8 0 -1.5298 -1.8158
6 8 1 -0.0810 0.0165
6 8 2 0.1390 -0.2499
6 8 3 -0.1221 -0.0017
6 8 4 2.0108 -0.2036
6 8 5 -0.8209 0.1737
6 8 6 0.6210 0.4423
6 8 7 0.6978 -0.2097
6 9 0 -0.4312 -0.1949
6 9 1 1.9752 -0.1231
6 9 2 -0.0107 0.0880
6 9 3 1.3457 0.3918
6 9 4 -0.4958 -0.0827
6 9 5 -0.5586 -0.4432
6 10 0 1.6428 1.1491
6 10 1 0.4229 -0.0428
7 0 1 -1.1699 0.0819
7 0 2 3.1745 -0.2903
7 0 3 2.7946 0.0530
7 0 4 -1.4435 0.0715
7 0 5 -3.2490 -0.2559
7 0 6 -3.0217 -0.3472
7 0 7 0.9131 0.1994
7 0 8 -0.2839 0.4607
7 0 9 -0.7951 -0.2358
7 0 10 1.7924 -0.2566
7 0 11 0.3982 0.4363
7 1 1 -0.2822 0.0538
7 1 2 1.0600 -0.3176
7 1 3 -4.3091 0.0341
7 1 4 -2.1448 -0.2822
7 1 5 -1.6155 -0.0583
7 1 6 0.8457 -0.0341
7 1 7 1.0831 0.1230
7 1 8 -0.4780 -0.1806
7 1 9 -0.3150 0.1719
7 1 10 0.4992 0.1976
7 1 11 -1.7629 -0.2289
7 2 1 -0.3913 0.3411
7 2 2 -1.6180 0.1862
7 2 3 -0.3906 0.0876
7 2 4 2.6868 0.2970
7 2 5 0.5140 -0.0932
7 2 6 2.6637 -0.0596
7 2 7 1.6327 -0.1387
7 2 8 -0.7181 0.1310
7 2 9 0.8443 -0.1778
7 2 10 0.1882 -0.0913
7 3 1 0.1662 -0.1371
7 3 2 0.0405 0.3613
7 3 3 3.6865 0.0245
7 3 4 0.1213 0.1569
7 3 5 2.2917 0.2480
7 3 6 0.7197 0.2398
7 3 7 -0.7292 0.3117
7 3 8 -1.2232 -0.0599
7 3 9 0.5049 0.3667
7 3 10 -0.7482 0.2635
7 4 1 0.1226 -0.0605
7 4 2 1.2871 -0.3934
7 4 3 -0.3435 0.0652
7 4 4 -1.1533 -0.2956
7 4 5 1.0691 0.0711
7 4 6 -1.8048 -0.3667
7 4 7 -0.2562 0.0393
7 4 8 0.0092 -0.2289
7 4 9 -0.4660 -0.1674
7 5 1 0.0659 0.1717
7 5 2 -0.4959 -0.2431
7 5 3 -3.2549 0.0064
7 5 4 -0.2224 -0.3825
7 5 5 -0.9684 0.0705
7 5 6 -1.0686 0.0086
7 5 7 0.8070 -0.0331
7 5 8 -0.3717 0.0070
7 5 9 -0.3951 0.1583
7 6 1 1.3838 0.2661
7 6 2 -2.7431 -0.0218
7 6 3 -0.5938 0.1391
7 6 4 1.3916 0.0189
7 6 5 1.5878 -0.1342
7 6 6 1.9550 0.0768
7 6 7 0.6600 -0.0397
7 6 8 -0.2305 -0.1995
7 7 1 -1.0302 0.1207
7 7 2 -1.7119 0.3261
7 7 3 1.0704 -0.0074
7 7 4 0.4382 0.0710
7 7 5 0.2426 0.1063
7 7 6 -1.8491 0.2296
7 8 1 -0.3508 0.0815
7 8 2 0.8007 -0.1399
7 8 3 0.1168 0.1742
7 8 4 0.3583 -0.0847
8 0 0 -1.1584 0.7074
8 0 1 2.4481 -0.9225
8 0 2 -0.9733 -0.3336
8 0 3 0.9023 2.2628
8 0 4 0.8565 0.6018
8 0 5 -1.4260 -1.8075
8 0 6 -0.3552 -0.3433
8 0 7 -0.7810 1.7787
8 0 8 0.8833 0.4842
8 1 0 1.4151 1.0142
8 1 1 0.3331 -0.1955
8 1 2 -1.6769 0.9491
8 1 3 1.8941 0.1695
8 1 4 -2.2036 -0.2906
8 1 5 -0.2707 -0.1181
8 1 6 -0.3079 0.5646
8 1 7 -0.0171 0.2588
8 1 8 -0.6179 0.4247
8 2 0 -0.2313 -0.5139
8 2 1 -1.3386 -0.6727
8 2 2 1.0782 -0.3873
8 2 3 0.1936 0.5366
8 2 4 -0.5378 -0.1071
8 2 5 2.7477 -0.6155
8 2 6 0.4679 -0.2938
8 2 7 0.6644 0.2304
8 2 8 1.0229 -0.1967
8 3 0 -1.1819 -2.3602
8 3 1 2.2035 -0.0360
8 3 2 1.3956 -0.3421
8 3 3 -0.1904 0.0683
8 3 4 3.1578 -0.3358
8 3 5 -0.1060 -0.1423
8 3 6 -0.5190 0.2576
8 3 7 -0.3785 0.0330
8 4 0 5.0014 0.5802
8 4 1 0.6657 0.0863
8 4 2 -2.1810 0.1947
8 4 3 0.2593 0.0348
8 4 4 0.4936 0.1617
8 4 5 -1.9426 -0.4781
8 4 6 1.2346 0.0285
8 5 0 -0.5089 1.6901
8 5 1 -4.6749 -0.1168
8 5 2 -1.2166 0.7871
8 5 3 0.1852 0.0499
8 5 4 -0.9215 0.2778
8 5 5 -0.3791 0.2054
8 6 0 -2.4920 -0.4988
8 6 1 -0.5294 0.5799
8 6 2 0.9153 0.0174
8 6 3 0.3812 -0.4698
9 0 1 2.1687 -0.0286
9 0 2 0.0269 -0.1310
9 0 3 -0.6830 -0.1145
9 1 1 0.4126 -0.2058
9 1 2 -0.8229 0.1910
9 2 1 -0.5982 -0.1556
0 0 0 0.0 0.0
;
_shelx_fab_checksum                61781
_olex2_submission_special_instructions  'No special instructions were received'
