data_mo_wl03_040e_4_298k_0m
_audit_creation_date               2025-05-09
_audit_creation_method
;
Olex2 1.5
(compiled 2025.04.05 svn.rf049d14d for OlexSys, GUI svn.r7205)
;
_shelx_SHELXL_version_number       '2018/3'
_audit_contact_author_address      ?
_audit_contact_author_email        ?
_audit_contact_author_name         ''
_audit_contact_author_phone        ?
_publ_contact_author_id_orcid      ?
_publ_section_references
;
Dolomanov, O.V., Bourhis, L.J., Gildea, R.J, Howard, J.A.K. & Puschmann, H.
 (2009), J. Appl. Cryst. 42, 339-341.

Sheldrick, G.M. (2015). Acta Cryst. A71, 3-8.

Sheldrick, G.M. (2015). Acta Cryst. C71, 3-8.
;
# start Validation Reply Form
_vrf_PLAT242_mo_wl03_040e_4_298k_0m
;
PROBLEM: Low    'MainMol' Ueq as Compared to Neighbors of         N1 Check 
RESPONSE: N1 is part of lattice DMF solvent molecule and the other atoms are disordered
across symmetry site.
;
# end Validation Reply Form

_chemical_name_common              ?
_chemical_name_systematic          ?
_chemical_formula_moiety           'C4 H3 In O5, 0.5(C6 H14 N2 O2)'
_chemical_formula_sum              'C7 H10 In N O6'
_chemical_formula_weight           318.98
_chemical_melting_point            ?
loop_
  _atom_type_symbol
  _atom_type_description
  _atom_type_scat_dispersion_real
  _atom_type_scat_dispersion_imag
  _atom_type_scat_source
 'C' 'C' 0.0033 0.0016 'International Tables Vol C Tables 4.2.6.8 and 6.1.1.4'
 'H' 'H' 0.0000 0.0000 'International Tables Vol C Tables 4.2.6.8 and 6.1.1.4'
 'In' 'In' -0.7276 1.3100
 'International Tables Vol C Tables 4.2.6.8 and 6.1.1.4'
 'N' 'N' 0.0061 0.0033 'International Tables Vol C Tables 4.2.6.8 and 6.1.1.4'
 'O' 'O' 0.0106 0.0060 'International Tables Vol C Tables 4.2.6.8 and 6.1.1.4'

_shelx_space_group_comment
;
The symmetry employed for this shelxl refinement is uniquely defined
by the following loop, which should always be used as a source of
symmetry information in preference to the above space-group names.
They are only intended as comments.
;
_space_group_crystal_system        'orthorhombic'
_space_group_IT_number             62
_space_group_name_H-M_alt          Pnma
_space_group_name_Hall             '-P 2ac 2n'
loop_
  _space_group_symop_operation_xyz
 'x, y, z'
 '-x+1/2, -y, z+1/2'
 '-x, y+1/2, -z'
 'x+1/2, -y+1/2, -z+1/2'
 '-x, -y, -z'
 'x-1/2, y, -z-1/2'
 'x, -y-1/2, z'
 '-x-1/2, y-1/2, z-1/2'

_cell_length_a                     7.307(2)
_cell_length_b                     10.626(3)
_cell_length_c                     13.915(5)
_cell_angle_alpha                  90
_cell_angle_beta                   90
_cell_angle_gamma                  90
_cell_volume                       1080.4(6)
_cell_formula_units_Z              4
_cell_measurement_reflns_used      4993
_cell_measurement_temperature      298
_cell_measurement_theta_max        26.44
_cell_measurement_theta_min        2.41
_shelx_estimated_absorpt_T_max     0.941
_shelx_estimated_absorpt_T_min     0.668
_exptl_absorpt_coefficient_mu      2.196
_exptl_absorpt_correction_T_max    0.7454
_exptl_absorpt_correction_T_min    0.6051
_exptl_absorpt_correction_type     multi-scan
_exptl_absorpt_process_details
;
SADABS-2016/2 (Bruker,2016/2) was used for absorption correction.
wR2(int) was 0.1072 before and 0.0760 after correction.
The Ratio of minimum to maximum transmission is 0.8118.
The \l/2 correction factor is Not present.
;
_exptl_absorpt_special_details     ?
_exptl_crystal_colour              colourless
_exptl_crystal_colour_primary      colourless
_exptl_crystal_density_diffrn      1.961
_exptl_crystal_density_meas        ?
_exptl_crystal_density_method      ?
_exptl_crystal_description         TUBE
_exptl_crystal_F_000               624
_exptl_crystal_size_max            0.2
_exptl_crystal_size_mid            0.028
_exptl_crystal_size_min            0.028
_exptl_transmission_factor_max     ?
_exptl_transmission_factor_min     ?
_diffrn_reflns_av_R_equivalents    0.0511
_diffrn_reflns_av_unetI/netI       0.0420
_diffrn_reflns_Laue_measured_fraction_full  0.996
_diffrn_reflns_Laue_measured_fraction_max  0.992
_diffrn_reflns_limit_h_max         9
_diffrn_reflns_limit_h_min         -8
_diffrn_reflns_limit_k_max         13
_diffrn_reflns_limit_k_min         -12
_diffrn_reflns_limit_l_max         17
_diffrn_reflns_limit_l_min         -13
_diffrn_reflns_number              5946
_diffrn_reflns_point_group_measured_fraction_full  0.996
_diffrn_reflns_point_group_measured_fraction_max  0.992
_diffrn_reflns_theta_full          25.242
_diffrn_reflns_theta_max           26.445
_diffrn_reflns_theta_min           2.412
_diffrn_ambient_temperature        298
_diffrn_detector                   'charge integrating pixel array detector'
_diffrn_detector_area_resol_mean   7.4074
_diffrn_detector_type              'Bruker PHOTON II'
_diffrn_measured_fraction_theta_full  0.996
_diffrn_measured_fraction_theta_max  0.992
_diffrn_measurement_device         'four-circle diffractometer'
_diffrn_measurement_device_type    'Bruker D8 VENTURE'
_diffrn_measurement_method         '\f and \w scans'
_diffrn_radiation_collimation      'focusing mirrors'
_diffrn_radiation_monochromator    'multilayer mirror optics'
_diffrn_radiation_type             MoK\a
_diffrn_radiation_wavelength       0.71073
_diffrn_source                     'microfocus sealed tube'
_diffrn_source_current             1.4
_diffrn_source_power               0.07
_diffrn_source_type                'INCOATEC I\ms 3.0'
_diffrn_source_voltage             50.0
_diffrn_standards_number           0
_reflns_Friedel_coverage           0.000
_reflns_Friedel_fraction_full      .
_reflns_Friedel_fraction_max       .
_reflns_number_gt                  1103
_reflns_number_total               1165
_reflns_special_details
;
 Reflections were merged by SHELXL according to the crystal
 class for the calculation of statistics and refinement.
 
 _reflns_Friedel_fraction is defined as the number of unique
 Friedel pairs measured divided by the number that would be
 possible theoretically, ignoring centric projections and
 systematic absences.
;
_reflns_threshold_expression       'I > 2\s(I)'
_computing_cell_refinement         'SAINT V8.37A (Bruker-AXS, 2016)'
_computing_data_collection         'APEX3 Ver. 2016.9-0 (Bruker-AXS, 2016)'
_computing_data_reduction          'APEX3 Ver. 2016.9-0 (Bruker-AXS, 2016)'
_computing_molecular_graphics      'Olex2 1.5 (Dolomanov et al., 2009)'
_computing_publication_material    'Olex2 1.5 (Dolomanov et al., 2009)'
_computing_structure_refinement    'SHELXL 2018/3 (Sheldrick, 2015)'
_computing_structure_solution      'SHELXT 2018/2 (Sheldrick, 2018)'
_refine_diff_density_max           1.167
_refine_diff_density_min           -0.766
_refine_diff_density_rms           0.134
_refine_ls_extinction_coef         .
_refine_ls_extinction_method       none
_refine_ls_goodness_of_fit_ref     1.111
_refine_ls_hydrogen_treatment      mixed
_refine_ls_matrix_type             full
_refine_ls_number_parameters       93
_refine_ls_number_reflns           1165
_refine_ls_number_restraints       74
_refine_ls_R_factor_all            0.0376
_refine_ls_R_factor_gt             0.0362
_refine_ls_restrained_S_all        1.094
_refine_ls_shift/su_max            0.000
_refine_ls_shift/su_mean           0.000
_refine_ls_structure_factor_coef   Fsqd
_refine_ls_weighting_details      
 'w=1/[\s^2^(Fo^2^)+(0.0187P)^2^+4.7974P] where P=(Fo^2^+2Fc^2^)/3'
_refine_ls_weighting_scheme        calc
_refine_ls_wR_factor_gt            0.0866
_refine_ls_wR_factor_ref           0.0876
_refine_special_details            ?
_olex2_refinement_description
;
1. Fixed Uiso
 At 1.2 times of:
  All C(H) groups
 At 1.5 times of:
  All C(H,H,H) groups
2. Restrained distances
 O3-H3A
 0.84 with sigma of 0.02
 In1_$1-H3A \\sim H3A-In1
 with sigma of 0.02
3. Uiso/Uaniso restraints and constraints
O4 \\sim N1 \\sim C3 \\sim C7 \\sim C5 \\sim H3 \\sim H7A \\sim H7B \\sim H7C
\\sim H5A \\sim H5B \\sim H5C: within 1.7A with sigma of 0.04 and sigma for
terminal atoms of 0.08 within 1.7A
4. Others
 Fixed Sof: C3(0.5) H3(0.5) C5(0.5) H5A(0.5) H5B(0.5) H5C(0.5) C7(0.5)
 H7A(0.5) H7B(0.5) H7C(0.5)
5.a Aromatic/amide H refined with riding coordinates:
 C2(H2), C3(H3)
5.b Idealised Me refined as rotating group:
 C5(H5A,H5B,H5C), C7(H7A,H7B,H7C)
;
_atom_sites_solution_hydrogens     mixed
_atom_sites_solution_primary       dual
_atom_sites_solution_secondary     ?
loop_
  _atom_site_label
  _atom_site_type_symbol
  _atom_site_fract_x
  _atom_site_fract_y
  _atom_site_fract_z
  _atom_site_U_iso_or_equiv
  _atom_site_adp_type
  _atom_site_occupancy
  _atom_site_site_symmetry_order
  _atom_site_calc_flag
  _atom_site_refinement_flags_posn
  _atom_site_refinement_flags_adp
  _atom_site_refinement_flags_occupancy
  _atom_site_disorder_assembly
  _atom_site_disorder_group
 C1 C 0.5858(6) 0.5795(5) 0.1162(4) 0.0361(11) Uani 1 1 d . . . . .
 In1 In 0.33870(5) 0.750000 0.25439(2) 0.02250(17) Uani 1 2 d DS T P . .
 O1 O 0.4367(4) 0.6096(4) 0.1537(3) 0.0486(10) Uani 1 1 d . . . . .
 C2 C 0.5759(7) 0.5026(6) 0.0267(4) 0.0466(13) Uani 1 1 d . . . . .
 H2 H 0.678188 0.457021 0.007597 0.056 Uiso 1 1 calc R U . . .
 O2 O 0.7410(4) 0.6078(4) 0.1454(3) 0.0457(9) Uani 1 1 d . . . . .
 O3 O 0.5925(5) 0.750000 0.3206(3) 0.0319(10) Uani 1 2 d DS T P . .
 H3A H 0.597(2) 0.750000 0.3796(15) 0.04(2) Uiso 1 2 d DS . P . .
 N1 N 0.5955(11) 0.250000 0.3622(6) 0.068(2) Uani 1 2 d S TU P . .
 C3 C 0.503(3) 0.307(2) 0.4297(12) 0.102(6) Uani 0.5 1 d . U P A -1
 H3 H 0.518779 0.393266 0.438222 0.122 Uiso 0.5 1 calc R U P A -1
 O4 O 0.3973(12) 0.250000 0.4822(6) 0.131(5) Uani 1 2 d S TU P . .
 C5 C 0.586(3) 0.115(2) 0.349(2) 0.132(8) Uani 0.5 1 d . U P A -1
 H5A H 0.670667 0.089977 0.299546 0.198 Uiso 0.5 1 calc R U P A -1
 H5B H 0.463820 0.091983 0.329397 0.198 Uiso 0.5 1 calc R U P A -1
 H5C H 0.615656 0.073187 0.407685 0.198 Uiso 0.5 1 calc R U P A -1
 C7 C 0.720(4) 0.321(3) 0.3031(19) 0.157(10) Uani 0.5 1 d . U P A -1
 H7A H 0.799886 0.263787 0.269525 0.235 Uiso 0.5 1 calc R U P A -1
 H7B H 0.791870 0.375657 0.342856 0.235 Uiso 0.5 1 calc R U P A -1
 H7C H 0.652305 0.369687 0.257413 0.235 Uiso 0.5 1 calc R U P A -1

loop_
  _atom_site_aniso_label
  _atom_site_aniso_U_11
  _atom_site_aniso_U_22
  _atom_site_aniso_U_33
  _atom_site_aniso_U_23
  _atom_site_aniso_U_13
  _atom_site_aniso_U_12
 C1 0.027(2) 0.043(3) 0.037(2) -0.016(2) -0.0042(18) 0.003(2)
 In1 0.0117(2) 0.0370(3) 0.0187(2) 0.000 0.00142(13) 0.000
 O1 0.0247(15) 0.071(3) 0.050(2) -0.035(2) -0.0019(15) 0.0019(17)
 C2 0.034(2) 0.058(3) 0.048(3) -0.025(3) -0.002(2) 0.004(2)
 O2 0.0216(14) 0.067(2) 0.0482(19) -0.0328(18) -0.0030(14) -0.0030(16)
 O3 0.0128(19) 0.064(3) 0.019(2) 0.000 -0.0006(14) 0.000
 N1 0.056(5) 0.088(6) 0.060(5) 0.000 0.014(4) 0.000
 C3 0.094(11) 0.142(15) 0.068(9) -0.042(9) 0.009(9) -0.024(10)
 O4 0.082(6) 0.266(15) 0.046(4) 0.000 0.016(4) 0.000
 C5 0.116(17) 0.092(14) 0.19(2) -0.004(16) -0.001(16) 0.015(13)
 C7 0.145(19) 0.18(2) 0.142(19) 0.006(18) 0.037(17) -0.074(18)

_geom_special_details
;
 All esds (except the esd in the dihedral angle between two l.s. planes)
 are estimated using the full covariance matrix.  The cell esds are taken
 into account individually in the estimation of esds in distances, angles
 and torsion angles; correlations between esds in cell parameters are only
 used when they are defined by crystal symmetry.  An approximate (isotropic)
 treatment of cell esds is used for estimating esds involving l.s. planes.
;
loop_
  _geom_bond_atom_site_label_1
  _geom_bond_atom_site_label_2
  _geom_bond_distance
  _geom_bond_site_symmetry_2
  _geom_bond_publ_flag
 C1 O1 1.250(5) . ?
 C1 C2 1.491(7) . ?
 C1 O2 1.241(5) . ?
 In1 O1 2.168(3) 7_575 ?
 In1 O1 2.168(3) . ?
 In1 O2 2.177(3) 6_556 ?
 In1 O2 2.177(3) 4_465 ?
 In1 O3 2.080(4) 6_556 ?
 In1 O3 2.071(4) . ?
 C2 C2 1.337(10) 5_665 ?
 C2 H2 0.9300 . ?
 O3 H3A 0.82(2) . ?
 O3 H3A 0.82(2) . ?
 N1 C3 1.305(17) . ?
 N1 C5 1.45(2) . ?
 N1 C7 1.44(2) . ?
 C3 H3 0.9300 . ?
 C3 O4 1.226(19) . ?
 C5 H5A 0.9600 . ?
 C5 H5B 0.9600 . ?
 C5 H5C 0.9600 . ?
 C7 H7A 0.9600 . ?
 C7 H7B 0.9600 . ?
 C7 H7C 0.9600 . ?

loop_
  _geom_angle_atom_site_label_1
  _geom_angle_atom_site_label_2
  _geom_angle_atom_site_label_3
  _geom_angle
  _geom_angle_site_symmetry_1
  _geom_angle_site_symmetry_3
  _geom_angle_publ_flag
 O1 C1 C2 116.5(4) . . ?
 O2 C1 O1 126.7(4) . . ?
 O2 C1 C2 116.8(4) . . ?
 O1 In1 O1 86.9(2) . 7_575 ?
 O1 In1 O2 179.51(16) . 4_465 ?
 O1 In1 O2 92.56(17) 7_575 4_465 ?
 O1 In1 O2 179.51(16) 7_575 6_556 ?
 O1 In1 O2 92.56(17) . 6_556 ?
 O2 In1 O2 87.9(2) 4_465 6_556 ?
 O3 In1 O1 87.79(12) 6_556 7_575 ?
 O3 In1 O1 89.52(12) . 7_575 ?
 O3 In1 O1 89.52(12) . . ?
 O3 In1 O1 87.80(12) 6_556 . ?
 O3 In1 O2 90.49(12) . 4_465 ?
 O3 In1 O2 92.17(12) 6_556 4_465 ?
 O3 In1 O2 90.49(12) . 6_556 ?
 O3 In1 O2 92.17(12) 6_556 6_556 ?
 O3 In1 O3 176.30(10) . 6_556 ?
 C1 O1 In1 137.2(3) . . ?
 C1 C2 H2 119.0 . . ?
 C2 C2 C1 121.9(6) 5_665 . ?
 C2 C2 H2 119.0 5_665 . ?
 C1 O2 In1 132.6(3) . 4_565 ?
 In1 O3 In1 123.4(2) . 4_565 ?
 In1 O3 H3A 118.8(11) . . ?
 In1 O3 H3A 117.8(11) 4_565 . ?
 H3A O3 In1 118.8(11) . . ?
 H3A O3 In1 117.8(11) . 4_565 ?
 H3A O3 H3A 0(2) . . ?
 C3 N1 C5 121.9(18) . . ?
 C3 N1 C7 119.7(15) . . ?
 C7 N1 C5 118(2) . . ?
 N1 C3 H3 119.2 . . ?
 O4 C3 N1 121.7(17) . . ?
 O4 C3 H3 119.2 . . ?
 N1 C5 H5A 109.5 . . ?
 N1 C5 H5B 109.5 . . ?
 N1 C5 H5C 109.5 . . ?
 H5A C5 H5B 109.5 . . ?
 H5A C5 H5C 109.5 . . ?
 H5B C5 H5C 109.5 . . ?
 N1 C7 H7A 109.5 . . ?
 N1 C7 H7B 109.5 . . ?
 N1 C7 H7C 109.5 . . ?
 H7A C7 H7B 109.5 . . ?
 H7A C7 H7C 109.5 . . ?
 H7B C7 H7C 109.5 . . ?

loop_
  _geom_torsion_atom_site_label_1
  _geom_torsion_atom_site_label_2
  _geom_torsion_atom_site_label_3
  _geom_torsion_atom_site_label_4
  _geom_torsion
  _geom_torsion_site_symmetry_1
  _geom_torsion_site_symmetry_2
  _geom_torsion_site_symmetry_3
  _geom_torsion_site_symmetry_4
  _geom_torsion_publ_flag
 O1 C1 C2 C2 19.6(11) . . . 5_665 ?
 O1 C1 O2 In1 -17.0(9) . . . 4_565 ?
 C2 C1 O1 In1 -160.5(4) . . . . ?
 C2 C1 O2 In1 162.5(4) . . . 4_565 ?
 O2 C1 O1 In1 19.0(10) . . . . ?
 O2 C1 C2 C2 -160.0(8) . . . 5_665 ?
 C5 N1 C3 O4 -3(3) . . . . ?
 C7 N1 C3 O4 -179.2(19) . . . . ?

_shelx_res_file
;
TITL mo_wl03_040e_4_298k_0m_a.res in Pnma
    mo_wl03_040e_4_298k_0m.res
    created by SHELXL-2018/3 at 15:39:47 on 09-May-2025
REM Old TITL mo_WL03_040E_4_298K_0m in Pnma
REM SHELXT solution in Pnma: R1 0.126, Rweak 0.002, Alpha 0.028
REM <I/s> 1.573 for 150 systematic absences, Orientation as input
REM Formula found by SHELXT: C6 O5 In
CELL 0.71073 7.3073 10.6257 13.9147 90 90 90
ZERR 4 0.0021 0.0032 0.0045 0 0 0
LATT 1
SYMM 0.5-X,-Y,0.5+Z
SYMM -X,0.5+Y,-Z
SYMM 0.5+X,0.5-Y,0.5-Z
SFAC C H In N O
UNIT 28 40 4 4 24
EQIV $1 0.5+X,1.5-Y,0.5-Z
DFIX 0.84 O3 H3a
SADI In1_$1 H3a H3a In1
SIMU 0.04 0.08 1.7 O4 N1 C3 C7 C5 H3 H7a H7b H7c H5a H5b H5c

L.S. 40
PLAN  40
SIZE 0.028 0.028 0.2
TEMP 24.85
CONF
BIND H3a O3
BOND
list 4
MORE -1
BOND $H
fmap 2
acta
OMIT 1 0 1
OMIT 1 0 4
REM <olex2.extras>
REM <HklSrc "%.\\mo_WL03_040E_4_298K_0m.hkl">
REM </olex2.extras>

WGHT    0.018700    4.797400
FVAR       0.42755
C1    1    0.585847    0.579527    0.116203    11.00000    0.02741    0.04345 =
         0.03737   -0.01641   -0.00421    0.00343
IN1   3    0.338699    0.750000    0.254388    10.50000    0.01172    0.03704 =
         0.01872    0.00000    0.00142    0.00000
O1    5    0.436739    0.609636    0.153742    11.00000    0.02470    0.07119 =
         0.05004   -0.03501   -0.00186    0.00186
C2    1    0.575873    0.502638    0.026744    11.00000    0.03381    0.05793 =
         0.04818   -0.02461   -0.00238    0.00430
AFIX  43
H2    2    0.678188    0.457021    0.007597    11.00000   -1.20000
AFIX   0
O2    5    0.740961    0.607785    0.145392    11.00000    0.02160    0.06718 =
         0.04818   -0.03279   -0.00302   -0.00297
O3    5    0.592514    0.750000    0.320646    10.50000    0.01279    0.06413 =
         0.01863    0.00000   -0.00060    0.00000
H3A   2    0.597135    0.750000    0.379552    10.50000    0.03848

N1    4    0.595465    0.250000    0.362172    10.50000    0.05586    0.08827 =
         0.05953    0.00000    0.01367    0.00000
PART -1
C3    1    0.503439    0.307101    0.429696    10.50000    0.09439    0.14196 =
         0.06840   -0.04221    0.00890   -0.02425
AFIX  43
H3    2    0.518779    0.393266    0.438222    10.50000   -1.20000
AFIX   0
PART 0
O4    5    0.397260    0.250000    0.482178    10.50000    0.08244    0.26633 =
         0.04571    0.00000    0.01625    0.00000
PART -1
C5    1    0.585565    0.114868    0.348549    10.50000    0.11573    0.09152 =
         0.18953   -0.00391   -0.00115    0.01530
AFIX 137
H5A   2    0.670667    0.089977    0.299546    10.50000   -1.50000
H5B   2    0.463820    0.091983    0.329397    10.50000   -1.50000
H5C   2    0.615656    0.073187    0.407685    10.50000   -1.50000
AFIX   0
C7    1    0.720274    0.320667    0.303071    10.50000    0.14486    0.18389 =
         0.14224    0.00566    0.03729   -0.07393
AFIX 137
H7A   2    0.799886    0.263787    0.269525    10.50000   -1.50000
H7B   2    0.791870    0.375657    0.342856    10.50000   -1.50000
H7C   2    0.652305    0.369687    0.257413    10.50000   -1.50000
AFIX   0
HKLF 4




REM  mo_wl03_040e_4_298k_0m_a.res in Pnma
REM wR2 = 0.0876, GooF = S = 1.111, Restrained GooF = 1.094 for all data
REM R1 = 0.0362 for 1103 Fo > 4sig(Fo) and 0.0376 for all 1165 data
REM 93 parameters refined using 74 restraints

END

WGHT      0.0194      4.8322

REM Highest difference peak  1.167,  deepest hole -0.766,  1-sigma level  0.134
Q1    1   0.3524  0.6875  0.2226  11.00000  0.05    1.17
Q2    1   0.5119  0.7500  0.2558  10.50000  0.05    0.74
Q3    1   0.2825  0.6998  0.3186  11.00000  0.05    0.58
Q4    1   0.4524  0.3409  0.4960  11.00000  0.05    0.57
Q5    1   0.7299  0.7500  0.3074  10.50000  0.05    0.50
Q6    1   0.3378  0.7500  0.3065  10.50000  0.05    0.46
Q7    1   0.2164  0.7500  0.2515  10.50000  0.05    0.46
Q8    1   0.5885  0.6135  0.2575  11.00000  0.05    0.39
Q9    1   0.8672  0.2500  0.3915  10.50000  0.05    0.39
Q10   1   0.8707  0.2500  0.3410  10.50000  0.05    0.38
Q11   1   0.4836  0.6683  0.1211  11.00000  0.05    0.37
Q12   1   0.7057  0.5347  0.2396  11.00000  0.05    0.37
Q13   1   0.5652  0.6940  0.3539  11.00000  0.05    0.37
Q14   1   0.7159  0.5508  0.2202  11.00000  0.05    0.36
Q15   1   0.3773  0.5823  0.2465  11.00000  0.05    0.36
Q16   1   0.6847  0.2926  0.4163  11.00000  0.05    0.33
Q17   1   0.3732  0.2500  0.4225  10.50000  0.05    0.33
Q18   1   0.3777  0.2500  0.3407  10.50000  0.05    0.32
Q19   1   0.7390  0.5650  0.1181  11.00000  0.05    0.31
Q20   1   0.5412  0.2500  0.4475  10.50000  0.05    0.31
Q21   1   0.6018  0.5040  0.0974  11.00000  0.05    0.30
Q22   1   0.4421  0.5985  0.1828  11.00000  0.05    0.30
Q23   1   0.6161  0.6539  0.3036  11.00000  0.05    0.29
Q24   1   0.4759  0.5626  0.1540  11.00000  0.05    0.28
Q25   1   0.4462  0.7500  0.0824  10.50000  0.05    0.27
Q26   1   0.5577  0.3999  0.4087  11.00000  0.05    0.26
Q27   1   0.5636  0.6432 -0.0132  11.00000  0.05    0.26
Q28   1   0.3952  0.5635  0.1368  11.00000  0.05    0.25
Q29   1   0.7837  0.6903  0.0937  11.00000  0.05    0.25
Q30   1   0.6230  0.6417  0.0832  11.00000  0.05    0.24
Q31   1   0.3691  0.0321  0.3391  11.00000  0.05    0.24
Q32   1   0.8226  0.3541  0.4358  11.00000  0.05    0.24
Q33   1   0.6660  0.4173  0.0365  11.00000  0.05    0.23
Q34   1   0.7068  0.1014  0.4359  11.00000  0.05    0.23
Q35   1   0.7279  0.4923 -0.0183  11.00000  0.05    0.22
Q36   1   0.2794  0.6506  0.1387  11.00000  0.05    0.21
Q37   1   0.3192  0.3402  0.4360  11.00000  0.05    0.21
Q38   1   0.7467  0.4516  0.3611  11.00000  0.05    0.21
Q39   1   0.5699  0.1324  0.3246  11.00000  0.05    0.21
Q40   1   0.9338  0.3721  0.3764  11.00000  0.05    0.20
;
_shelx_res_checksum                9778
_shelx_hkl_file
;
   2   0   0  107.29    8.30
   3   0   0    1.80    0.60
   3   0   0    0.60    0.60
   4   0   0 1278.57  106.49
   4   0   0 1619.94  106.69
   5   0   0   -0.30    0.60
   5   0   0    0.60    0.50
   6   0   0  157.08   12.30
   6   0   0  142.29   12.20
   7   0   0    0.00    0.70
   7   0   0   -0.30    0.90
   8   0   0   89.49    8.40
   9   0   0   -0.50    1.40
   9   0   0   -1.30    1.30
   0   1   0    0.00    0.30
   0  -1   0   -0.20    0.40
   0   1   0   -0.10    0.10
  -1  -1   0    1.20    0.80
   1  -1   0    1.10    0.30
   1   1   0    1.80    0.90
  -1   1   0    0.80    0.30
  -1   1   0    0.80    0.60
   1   1   0    0.60    0.40
  -2  -1   0 3134.79  220.48
  -2   1   0 2878.21  219.88
   3   1   0    0.10    0.60
   3  -1   0    0.70    0.50
   4  -1   0 1890.11  137.99
   4   1   0 1857.31  138.19
   4  -1   0 1894.11  137.99
   5   1   0    0.60    0.70
   5  -1   0    1.00    0.70
   5  -1   0    1.00    0.70
   5   1   0    0.20    0.90
   6  -1   0   11.50    2.20
   6   1   0    5.90    2.00
   7   1   0    0.10    1.10
   7   1   0    0.40    1.10
   7  -1   0    1.70    1.10
   7  -1   0    1.20    0.90
   8  -1   0 1065.49   82.79
   8   1   0 1191.68   83.29
   8  -1   0 1068.39   82.69
   8   1   0 1129.39   83.29
   9   1   0    0.10    1.40
   9  -1   0   -2.10    1.10
   9   1   0    1.10    1.10
   9  -1   0    0.60    1.40
   0   2   0 5272.07  386.46
  -1   2   0    1.00    0.90
   1   2   0    0.90    1.20
  -1   2   0    2.20    0.50
   1   2   0    2.10    0.60
   2   2   0  828.42   60.89
   2  -2   0  861.01   59.19
  -2  -2   0  737.93   60.69
  -2   2   0  720.13   60.29
   2   2   0  865.91   59.59
  -2  -2   0  818.52   59.59
   3  -2   0    0.70    0.40
   3   2   0    0.10    0.50
   4  -2   0 1462.95  116.49
   4  -2   0 1700.83  116.59
   4   2   0 1604.44  117.09
   5   2   0    0.60    0.80
   5   2   0   -0.20    0.70
   5  -2   0   -0.50    0.50
   5  -2   0    1.70    0.90
   6  -2   0 1794.12  129.79
   6  -2   0 1756.72  129.79
   6   2   0 1741.03  130.49
   7  -2   0   -1.10    0.90
   7   2   0   -0.30    1.00
   7  -2   0   -0.10    0.80
   7   2   0    0.30    1.30
   8  -2   0   29.00    4.00
   8   2   0   35.90    5.20
   9  -2   0   -1.30    1.30
   9   2   0   -1.50    1.50
   9   2   0   -1.50    1.40
   9  -2   0   -0.10    1.20
   0  -3   0    1.40    1.20
   0   3   0    1.40    0.60
  -1   3   0   -0.60    1.00
   1  -3   0    0.20    1.20
  -1  -3   0    0.10    0.40
   1   3   0    0.50    0.40
   1   3   0    0.00    1.00
   1  -3   0    0.30    0.30
  -2   3   0 1625.74  136.29
   2   3   0 1741.03  136.79
  -2  -3   0 1927.31  134.99
   2   3   0 2045.40  135.09
   3   3   0    3.70    1.10
  -3   3   0    1.00    1.10
  -3  -3   0    1.90    0.90
   3  -3   0    3.00    0.70
   4  -3   0 2470.85  168.68
   4  -3   0 2309.87  168.78
   4   3   0 2132.89  169.48
   5   3   0    1.00    0.90
   5  -3   0    1.20    0.80
   5  -3   0    0.50    0.50
   6  -3   0   55.09    5.00
   7   3   0   -0.10    1.00
   7  -3   0    1.00    0.90
   7  -3   0    0.50    0.70
   7   3   0    0.70    1.40
   8   3   0  650.53   48.80
   8  -3   0  611.94   47.40
   8  -3   0  616.24   47.60
   8   3   0  666.63   48.70
   0  -4   0 2493.95  185.98
   0   4   0 2679.23  186.38
   0  -4   0 2443.86  189.18
  -1  -4   0    5.30    2.80
  -1   4   0    5.70    0.90
   1   4   0    3.00    1.90
  -1   4   0    3.30    0.70
  -1   4   0    2.30    1.70
   1   4   0    3.90    1.00
  -1  -4   0    3.10    0.80
   1  -4   0    2.70    1.50
   1  -4   0    4.30    0.70
  -2   4   0  202.88   18.10
   2  -4   0  208.48   15.30
  -2   4   0  215.08   15.30
   2   4   0  220.18   16.00
  -2  -4   0  198.68   15.90
  -2  -4   0  184.28   18.20
   2   4   0  187.78   18.30
  -3   4   0    0.00    1.30
   3   4   0    0.40    0.60
   4   4   0 1724.63  127.29
   5   4   0    3.90    1.50
   5  -4   0    6.80    1.10
   5  -4   0    6.50    1.10
   6   4   0 1307.97   99.79
   6  -4   0 1353.06   98.59
   6   4   0 1387.96   99.99
   6  -4   0 1314.67   98.59
   7   4   0    2.70    1.50
   7  -4   0   -0.30    1.00
   7  -4   0    1.50    0.90
   7   4   0    0.00    1.10
   7  -4   0    0.50    0.80
   8   4   0   40.00    5.50
   8  -4   0   45.60    4.30
   0   5   0    2.70    0.80
   0   5   0    1.10    1.90
   0  -5   0    0.90    2.30
   0  -5   0    1.90    0.80
   1   5   0    0.60    1.70
   1   5   0    0.50    0.70
  -1  -5   0    4.40    4.20
  -1   5   0    2.20    1.00
  -1   5   0    1.10    0.50
  -1   5   0    0.80    1.60
   1  -5   0    0.90    0.50
  -1  -5   0    1.60    0.70
  -2  -5   0 1037.50   80.89
   2  -5   0 1113.69   80.29
   2   5   0 1113.69   80.99
  -2   5   0 1029.80   83.79
  -2   5   0 1160.38   80.29
   3   5   0    6.80    1.50
  -3   5   0    7.20    2.90
   4   5   0 1329.67   99.89
   5   5   0    0.50    0.90
   6   5   0   38.60    4.90
   7   5   0    3.00    1.90
   7   5   0    0.80    1.50
   8   5   0  701.63   54.99
   8   5   0  735.23   55.29
   0   6   0 4825.72  328.17
   0  -6   0 4388.46  328.57
   0   6   0 4221.38  332.37
   1   6   0    3.00    1.10
   1   6   0    3.70    2.60
  -1   6   0    3.90    0.80
   1  -6   0    5.30    1.00
  -1   6   0    1.80    2.20
  -1   6   0    3.70    1.00
  -1  -6   0    2.90    0.90
  -2   6   0  297.07   21.50
   2  -6   0  297.67   21.50
   2   6   0  261.47   22.10
   3   6   0   -0.30    0.60
   4   6   0  588.34   44.70
   5   6   0    1.90    1.40
   7   6   0    1.80    1.50
   8   6   0   20.80    4.50
   0  -7   0    1.90    1.10
   0   7   0    0.60    2.30
   0   7   0    4.00    1.30
   0   7   0    4.30    1.10
  -1   7   0    7.70    1.60
  -1   7   0    5.50    1.20
   1   7   0    2.70    3.40
  -1   7   0    4.30    2.80
   1   7   0    6.60    1.50
   2   7   0 1087.09   88.59
   2  -7   0 1167.48   87.89
  -2   7   0 1235.68   87.59
  -2   7   0 1260.17   87.89
  -2   7   0 1228.58   93.59
   3  -7   0    2.50    0.70
   3   7   0    0.30    0.90
   4   7   0  361.16   28.30
   5   7   0    0.50    1.00
   6   7   0   17.20    3.80
   7   7   0    2.50    1.80
   7   7   0    0.80    1.80
   0   8   0 2027.90  148.19
   0   8   0 2134.69  154.68
   0   8   0 1896.61  147.89
  -1   8   0    6.70    4.40
   1  -8   0    3.20    1.10
  -1   8   0    4.70    1.50
   1   8   0    2.30    1.30
  -2   8   0  151.58   11.10
   2   8   0  129.59   12.00
  -2   8   0  148.89   11.40
   3  -8   0    0.60    0.70
  -3   8   0    2.00    1.00
   3   8   0    1.60    1.30
   4   8   0  325.97   25.90
   5   8   0    2.60    1.50
   6   8   0  304.47   23.30
   6   8   0  250.97   22.50
   7   8   0    3.20    2.00
   7   8   0   -0.30    1.90
   0   9   0   -0.50    1.10
  -1   9   0    0.40    1.20
  -1   9   0   -0.30    0.90
   1   9   0    0.00    1.20
   2  -9   0  542.75   44.50
   2   9   0  613.14   45.50
  -2   9   0  603.54   44.60
  -2   9   0  631.64   44.20
   3  -9   0    0.70    0.80
   3   9   0    4.20    1.90
  -3   9   0    0.90    1.10
   4   9   0  277.17   22.60
   5   9   0    1.10    1.40
   6   9   0   13.00    3.40
   6   9   0    6.70    2.70
   0  10   0  303.17   23.70
   1  10   0    2.30    1.40
  -1  10   0    1.40    1.50
  -2  10   0   88.19    8.00
   2  10   0  101.59    8.90
  -3  10   0    0.50    1.10
   3  10   0    1.40    1.50
   3 -10   0   -0.30    0.90
   4  10   0  188.68   16.30
   5  10   0    4.20    2.20
   5  10   0    1.50    2.00
   6  10   0  339.07   27.80
   0  11   0    0.70    1.50
   1  11   0    0.00    1.40
  -1  11   0    0.00    1.50
   2  11   0  177.38   14.70
  -2  11   0  167.98   13.90
   3  11   0    1.10    1.90
  -3  11   0   -0.40    1.60
   4  11   0  229.58   19.50
   5  11   0    1.50    2.00
   5  11   0   -0.20    2.10
   0  12   0  324.37   25.60
  -1  12   0    1.00    1.50
  -1  12   0    0.40    1.90
   1  12   0    1.20    1.90
  -2  12   0   21.70    3.90
   2  12   0   12.10    3.00
  -3  12   0   -1.50    1.70
   3  12   0   -0.30    1.90
   0  13   0    0.80    2.20
   0  13   0   -1.30    2.40
  -1  13   0    0.20    2.00
   1  13   0    1.10    2.10
   1  13   0   -1.00    2.00
  -1  13   0   -1.10    2.10
   0   0   1   -0.10    0.10
   0   0   1   -0.10    0.10
   1   0   1   12.50    1.30
   2   0   1 1670.83  136.19
  -2   0  -1 1905.71  136.09
   2   0   1 2003.00  136.09
   3   0   1   10.20    1.70
   4   0   1 1955.60  146.59
   4   0  -1 2044.50  146.89
   4   0   1 1997.00  146.79
   5   0  -1    4.80    1.30
   5   0  -1    9.50    1.70
   5   0   1    7.10    1.60
   6   0   1   39.20    3.80
   6   0  -1   28.40    3.70
   7   0   1   69.39    7.20
   7   0  -1   65.79    6.70
   7   0  -1   85.69    7.10
   7   0   1   73.99    6.90
   8   0  -1 1318.77   95.59
   8   0   1 1276.77   95.39
   8   0  -1 1279.07   95.59
   8   0   1 1262.07   95.49
   9   0   1    3.60    1.60
   9   0   1    4.30    1.80
   9   0  -1    5.50    2.10
   9   0  -1    2.20    1.70
   0   1   1 9675.03  672.73
   0   1  -1 9999.00  710.83
   0  -1  -1 9010.90  672.33
   0   1   1 8665.43  705.13
   0   1  -1 8294.37  671.13
   1  -1   1  101.49    8.30
   1   1   1  122.99    8.50
  -2  -1  -1  791.92   60.59
   2  -1   1  810.12   60.39
   2  -1   1  872.41   60.49
  -2   1  -1  821.32   60.49
   2   1   1  823.02   60.59
   3   1  -1  241.78   17.70
   3   1  -1  212.08   17.80
   3  -1   1  234.38   17.20
  -3  -1  -1  236.88   17.50
   3   1   1  217.18   17.60
   3   1   1  233.58   17.50
   4  -1   1  954.90   68.89
   4  -1  -1  944.31   68.89
   4   1   1  899.71   69.09
   5  -1   1    0.10    0.50
   5  -1   1    0.90    0.70
   5   1  -1    0.30    0.80
   5  -1  -1    0.70    0.80
   5   1   1    0.10    0.80
   5   1   1   -0.40    0.40
   5  -1  -1    0.20    0.50
   6   1  -1  825.42   63.49
   6   1  -1  794.22   63.39
   6  -1   1  907.21   63.29
   6  -1   1  902.01   63.09
   6  -1  -1  856.61   63.29
   6  -1  -1  877.51   63.19
   6   1   1  777.22   63.29
   7   1  -1    2.30    1.50
   7   1  -1    2.10    1.40
   7  -1   1    3.40    1.20
   7   1   1    4.20    1.60
   7   1   1    2.40    1.30
   7  -1  -1    1.60    1.30
   7  -1  -1    2.00    1.30
   8  -1   1   45.40    5.10
   8   1  -1   48.50    5.50
   8   1   1   54.59    5.70
   8  -1  -1   53.09    5.40
   9   1  -1    2.10    1.60
   9  -1   1    2.40    1.50
   9   1  -1    2.00    1.70
   9  -1   1    3.50    1.70
   9   1   1    0.20    1.60
   9  -1  -1    3.30    1.80
   9  -1  -1    1.10    1.40
   9   1   1    0.90    1.60
   0  -2   1    0.10    0.30
   0   2  -1    0.70    0.50
   0   2  -1    0.20    0.30
   0   2   1    1.20    0.50
   1  -2   1 1876.51  142.09
   1   2  -1 1946.41  142.39
  -1   2   1 2031.90  142.19
   1   2   1 1923.11  142.39
  -2  -2  -1 2713.93  188.58
   2   2  -1 2365.56  189.78
   2   2  -1 2881.31  188.68
   2  -2   1 2460.05  188.08
   2   2   1 2881.51  188.58
  -2   2  -1 2411.86  188.18
   2  -2  -1 2305.57  189.38
  -3  -2  -1    2.40    1.40
   3   2  -1    4.00    1.70
   3   2  -1    7.70    1.60
   3   2   1    4.90    1.30
  -3   2  -1    5.00    1.70
   3  -2  -1    4.10    0.80
  -3   2  -1    4.50    0.90
   4  -2   1 2327.87  157.58
   4  -2   1 2145.59  157.48
  -4  -2  -1 2088.99  159.08
   4   2  -1 2101.39  158.18
  -4   2  -1 2116.29  158.28
   4   2   1 2120.89  158.08
   5  -2   1  116.79    8.40
   5   2  -1   92.19    8.80
   5  -2   1  109.19    8.50
   5   2   1   97.19    8.80
   5   2   1   94.49    8.90
   5  -2  -1  109.29    8.40
   6  -2   1   32.90    3.60
   6  -2  -1   32.10    3.50
   6   2   1   28.30    4.40
   7   2  -1   35.10    4.10
   7   2  -1   24.30    3.90
   7  -2   1   27.40    3.20
   7  -2   1   24.80    2.90
   7  -2  -1   22.40    3.00
   7   2   1   24.30    3.30
   8   2  -1  871.31   65.39
   8  -2   1  822.12   64.49
   8   2  -1  948.91   65.49
   8  -2   1  804.72   64.29
   8   2   1  892.51   65.49
   8  -2  -1  819.52   64.59
   8   2   1  907.91   65.29
   9   2  -1   -0.80    2.30
   9  -2   1    0.40    1.40
   9  -2  -1   -1.60    1.20
   9   2   1   -1.50    1.60
   0   3  -1 1493.55  105.19
   0   3   1 1536.85  105.19
   0  -3  -1 1320.87  107.29
   0  -3  -1 1481.75  105.19
   0  -3   1 1390.76  105.19
   0   3  -1 1379.06  105.09
   1  -3   1  255.77   18.60
   1   3  -1  255.07   18.90
  -1   3   1  272.97   18.70
  -1  -3  -1  249.68   18.90
   1  -3   1  230.48   18.60
  -1   3  -1  271.17   18.50
  -1   3  -1  229.98   18.50
   1  -3  -1  210.68   20.50
   1   3   1  254.87   18.90
   1  -3  -1  270.07   18.70
  -1  -3   1  240.98   18.90
   2  -3   1  536.25   41.00
   2   3  -1  578.34   41.70
  -2  -3  -1  544.75   43.60
  -2   3   1  612.44   41.30
   2   3  -1  557.34   43.70
  -2  -3  -1  533.85   41.50
   2  -3  -1  559.94   43.30
  -2   3  -1  551.14   41.00
  -2   3  -1  549.95   43.40
   2  -3  -1  562.44   41.10
   2   3   1  554.54   41.60
   3   3  -1    2.10    1.20
   3  -3   1    2.60    0.60
  -3  -3  -1    0.60    0.70
   3   3  -1    1.20    0.70
  -3  -3  -1   -0.10    1.30
   3   3   1    2.30    0.90
   3  -3  -1    1.20    0.60
  -3   3  -1    2.00    0.60
  -3   3  -1    2.00    1.40
   4   3  -1 1443.66   97.09
   4  -3   1 1303.07   96.59
  -4  -3  -1 1184.98   98.49
   4   3   1 1186.18   96.89
   4   3   1 1486.15   97.09
  -4   3  -1 1255.17   97.79
   5  -3   1   19.50    2.20
   5   3  -1   13.00    2.70
   5  -3   1   21.30    2.30
   5  -3  -1   24.30    2.20
   5  -3  -1   18.20    2.40
   6  -3   1 1976.90  143.29
   6  -3   1 2070.29  143.39
   6   3  -1 1829.82  144.29
   6  -3  -1 1944.01  143.49
   6   3   1 2016.20  144.49
   6  -3  -1 2135.09  143.29
   6  -3  -1 1885.71  143.59
   6   3   1 1755.32  144.09
   7   3  -1   39.10    5.10
   7  -3   1   45.50    4.00
   7  -3   1   37.80    4.00
   7   3  -1   45.60    4.90
   7  -3  -1   41.20    4.20
   7   3   1   39.30    4.90
   7   3   1   46.90    4.90
   7  -3  -1   38.00    4.00
   8   3  -1   78.49    7.70
   8  -3   1   59.49    6.20
   8   3   1   71.79    7.50
   8  -3  -1   62.69    6.10
   0   4   1    0.80    0.50
   0   4  -1    0.70    0.70
   0   4  -1    0.70    0.50
   0  -4  -1   -0.50    1.20
   0  -4  -1    0.70    0.50
   0  -4   1    0.10    0.40
   0   4  -1   -0.40    1.60
  -1  -4  -1  114.89    9.10
   1  -4   1  106.19    8.60
   1   4  -1  117.99    9.10
  -1   4   1  126.49    8.90
  -1   4  -1  101.09    8.70
   1   4   1  113.49    9.10
  -1   4  -1  121.29    8.70
   1  -4  -1  119.99    8.80
  -1  -4   1  105.49    9.00
   2  -4   1 1629.94  110.69
  -2  -4  -1 1507.25  111.29
   2   4  -1 1364.36  113.79
   2   4  -1 1663.73  111.49
  -2  -4  -1 1465.35  114.09
  -2   4  -1 1390.86  110.59
  -2  -4   1 1563.54  111.39
   2   4   1 1636.64  111.39
   2  -4  -1 1423.76  113.79
  -2   4  -1 1451.45  113.79
   3  -4   1   13.00    1.30
  -3  -4  -1   12.00    3.30
   3   4  -1   17.30    4.00
   3   4  -1   11.50    2.20
  -3   4  -1   15.60    3.90
   3  -4  -1   13.70    1.40
   3   4   1   10.30    1.90
   4   4  -1 2002.00  156.28
  -4  -4  -1 2243.28  159.28
   4  -4  -1 2287.87  155.48
   4   4   1 1962.90  156.18
   5   4  -1    6.90    2.40
   5  -4   1    6.50    1.10
   5   4   1    5.40    1.80
   5  -4  -1    7.80    1.40
   5   4   1    2.60    1.40
   6   4  -1   89.79    8.60
   6  -4  -1  105.79    7.70
   6   4   1   88.29    8.40
   6  -4  -1   80.39    7.50
   7  -4   1    2.70    0.90
   7   4  -1    4.10    1.90
   7   4  -1    3.40    1.70
   7   4   1    3.30    1.60
   7  -4  -1    0.70    0.90
   7   4   1    1.00    1.40
   8   4  -1  735.93   55.19
   8  -4   1  681.93   51.79
   8  -4  -1  656.83   52.09
   8   4   1  713.43   54.59
   8   4   1  717.33   53.39
   0  -5  -1 3247.78  253.97
   0   5  -1 3551.94  250.27
   0  -5   1 3288.97  250.17
   0   5  -1 3443.06  250.17
   0   5   1 3594.64  250.27
   0  -5  -1 3378.56  250.27
  -1  -5  -1    3.00    0.90
   1  -5   1    4.50    0.90
   1   5  -1    2.00    2.30
  -1   5   1    6.00    1.20
  -1  -5  -1    5.50    2.90
   1   5  -1    4.90    1.30
   1   5   1    4.60    1.20
   1  -5  -1    3.50    2.20
  -1  -5   1    3.60    1.00
  -1   5  -1    5.90    2.90
  -1   5  -1    3.60    0.80
  -1   5  -1    5.20    1.00
   1  -5  -1    4.10    0.90
   2   5  -1  352.36   30.60
   2   5  -1  345.57   27.20
  -2   5   1  378.86   26.70
  -2   5  -1  400.96   30.80
   2   5   1  349.57   27.10
   2  -5  -1  374.56   30.70
   2  -5  -1  359.36   26.60
  -2  -5   1  328.47   27.60
  -2   5  -1  343.17   26.40
  -3  -5  -1   19.40    4.70
   3   5  -1   45.80    8.20
   3   5  -1   31.20    3.40
   3   5   1   22.00    3.10
  -3   5  -1   34.20    6.50
   3  -5  -1   32.10    2.70
  -4  -5  -1  674.63   57.49
   4   5  -1  746.63   54.49
   4   5   1  749.03   55.39
  -4   5  -1  711.23   56.69
   5   5  -1    3.40    1.70
   5   5   1    2.90    1.50
   5   5   1    1.90    1.10
   5  -5  -1    3.90    1.00
   6   5  -1  917.31   71.29
   6   5   1  978.10   71.49
   6   5   1  945.21   71.19
   7   5  -1    0.30    1.70
   7   5  -1    5.90    1.90
   7   5   1    2.40    1.60
   7   5   1    0.40    1.60
   7  -5  -1    1.60    1.00
   7  -5  -1    1.90    1.10
   8   5  -1   85.39    8.90
   8   5   1   75.79    8.50
   0   6   1    0.90    0.90
   0   6  -1    1.10    1.00
   0  -6   1   -0.30    0.80
   0  -6  -1    1.00    0.70
   0   6  -1    1.80    1.00
   0  -6  -1    0.40    2.40
   0   6  -1   -2.70    3.30
  -1  -6  -1   13.80    2.30
  -1   6   1   20.10    2.20
   1   6  -1   10.00    3.90
  -1   6   1   19.20    1.90
  -1  -6  -1   20.10    6.80
   1   6  -1   17.00    2.20
   1  -6   1   16.20    1.90
   1   6   1   17.40    2.20
  -1   6  -1    9.00    3.40
  -1  -6   1   13.50    1.90
  -1   6  -1   19.00    2.00
   1  -6  -1   17.70    2.00
   1  -6  -1   15.20    4.30
   2   6  -1  926.61   83.29
  -2  -6  -1  994.80   83.79
  -2   6   1 1195.18   79.09
   2   6  -1 1045.90   79.59
   2  -6   1 1069.49   78.79
   2  -6  -1 1062.29   83.89
  -2   6  -1 1109.79   83.89
   2   6   1 1004.20   79.49
   2  -6  -1 1139.29   78.99
  -2   6  -1 1134.59   78.79
  -3   6   1    9.60    1.50
   3   6  -1    4.90    1.70
   3   6  -1    8.00    3.20
   3   6   1    5.20    1.50
  -3   6  -1    7.20    3.60
   3  -6  -1    8.50    1.30
   4   6  -1  908.31   69.09
   4   6   1  834.72   68.79
   4  -6  -1  950.50   67.79
  -4   6  -1 1003.50   72.59
   5   6  -1    4.60    1.80
   5   6   1    3.60    1.50
   5   6   1    6.40    2.00
   6   6  -1   19.20    3.90
   6   6   1   24.60    4.10
   7   6   1   -0.60    1.50
   7   6   1   -0.20    1.90
   8   6  -1  579.84   47.40
   8   6  -1  649.54   47.90
   8   6   1  597.24   47.40
   8   6   1  621.64   47.70
   0  -7  -1 2473.95  198.78
   0  -7   1 2570.44  198.68
   0   7  -1 2823.22  198.78
   0   7   1 2845.42  198.78
   0   7  -1 2841.32  198.58
   0  -7  -1 2700.33  204.58
  -1   7   1   23.20    2.60
   1   7  -1   17.20    5.90
  -1   7   1   22.30    2.40
   1  -7   1   20.40    2.30
  -1  -7  -1   25.80    7.20
   1  -7  -1   18.30    2.30
  -1   7  -1   23.00    2.40
   1  -7  -1   34.50    7.80
   1   7   1   19.90    2.70
  -1   7  -1   15.70    4.80
  -2   7   1  276.47   21.00
   2   7  -1  279.77   26.70
   2   7  -1  247.38   21.50
   2  -7   1  278.77   20.80
   2   7   1  242.88   21.50
   2  -7  -1  276.77   21.00
  -2   7  -1  288.17   20.80
  -2   7  -1  309.97   20.70
  -3  -7  -1   17.90    6.30
  -3   7   1   25.70    2.60
   3   7  -1   17.00    5.10
   3   7  -1   18.20    3.10
   3  -7  -1   23.40    2.30
  -3   7  -1   28.10    6.80
   3   7   1   17.00    3.10
   4   7  -1  277.57   21.60
  -4   7  -1  219.58   24.20
   4   7   1  281.97   21.60
   4  -7  -1  275.27   20.20
   5   7  -1    1.00    1.20
   5   7   1    1.40    1.30
   5   7   1    0.20    1.20
   6   7  -1  380.16   31.10
   6   7   1  395.16   31.10
   6   7   1  401.46   31.30
   7   7  -1    1.80    2.00
   7   7  -1    2.70    2.10
   7   7   1    4.00    2.20
   7   7   1    2.20    1.80
   0   8  -1   -3.00    3.20
   0   8  -1    0.10    1.20
   0  -8  -1   -1.70    5.10
   0   8   1    0.40    1.40
  -1   8   1    3.00    1.10
   1  -8   1    1.70    0.90
   1   8  -1    0.30    3.00
   1   8  -1    1.50    0.80
  -1   8   1    2.60    1.00
  -1  -8  -1    2.20    3.60
   1   8   1    2.10    1.10
  -1   8  -1    2.50    1.00
  -1   8  -1    0.60    0.90
  -1   8  -1    0.80    3.40
  -2   8   1  732.03   51.09
   2   8  -1  656.73   51.69
   2   8  -1  587.74   56.59
   2  -8   1  670.13   50.89
  -2  -8  -1  739.13   58.59
  -2   8  -1  710.23   50.69
   2  -8  -1  662.23   50.99
  -2   8  -1  752.62   50.89
  -2   8  -1  666.83   57.19
   2   8   1  665.03   51.69
   3   8  -1    6.90    2.10
  -3   8   1    8.90    1.70
   3  -8  -1    8.80    1.80
  -3   8  -1   11.90    4.80
   3   8   1    9.00    2.10
   4   8  -1  435.76   34.20
   4   8   1  442.56   34.20
   5   8  -1    1.20    1.30
   5   8   1    1.80    1.30
   5   8   1    1.70    1.70
   6   8  -1   15.30    3.30
   6   8   1   17.40    3.70
   7   8  -1    6.70    2.60
   7   8  -1    1.70    2.20
   7   8   1    4.30    2.70
   7   8   1    5.50    2.70
   0   9  -1  633.84   51.79
   0   9   1  572.94   44.40
   0   9  -1  579.24   44.20
  -1   9   1    1.80    1.20
  -1   9   1    3.40    1.20
   1   9  -1    8.10    4.70
   1   9  -1    4.40    1.60
  -1   9  -1    2.10    1.70
   1   9   1    2.40    1.40
  -1   9  -1   14.20    5.20
  -1   9  -1    3.40    1.30
   2   9  -1  134.49   11.40
  -2   9   1  128.39   10.60
   2  -9   1  116.79   10.30
   2   9  -1  140.89   17.70
   2   9   1  124.99   11.30
  -2   9  -1  136.89   10.50
  -2   9  -1  168.18   18.20
   3   9  -1    3.60    1.60
  -3   9   1   -0.50    1.10
  -3   9  -1   -2.80    2.90
   3  -9  -1    1.80    1.00
   3   9   1    0.60    1.30
   4   9  -1  193.08   16.10
   4   9   1  178.58   16.00
   4   9   1  187.38   15.90
   5   9  -1    4.10    2.20
   5   9   1    6.40    2.50
   5   9   1    3.00    2.20
   6   9  -1  407.96   33.70
   6   9   1  407.66   33.60
   6   9   1  453.45   34.10
   0  10   1    0.10    1.30
   0  10  -1   -0.30    1.80
   0  10  -1   -0.50    4.40
   1  10  -1   21.10    8.40
  -1  10   1   21.90    3.00
   1  10  -1   21.20    3.40
  -1  10   1   18.30    3.10
   1  10   1   17.40    3.30
  -1  10  -1   20.80    3.10
  -1  10  -1   19.00    6.60
   2  10  -1  295.07   23.70
  -2  10   1  287.47   23.00
  -2  10  -1  294.67   22.80
  -2  10  -1  304.17   22.60
   2  10   1  311.37   23.80
  -3  10   1    1.60    1.30
   3  10  -1    1.40    1.60
   3  10   1    2.30    1.50
   4  10  -1  286.47   23.20
   4  10   1  277.47   23.10
   5  10  -1    7.30    2.60
   5  10   1    7.30    2.90
   5  10   1    9.60    3.00
   0  11  -1  331.67   25.50
   0  11   1  317.97   25.50
   1  11  -1   -1.40    1.40
  -1  11   1    1.60    1.40
  -1  11   1    2.90    1.80
  -1  11  -1    1.30    1.50
   1  11   1    0.40    1.50
   1  11   1    0.00    1.50
   2  11  -1   43.50    5.40
  -2  11   1   39.30    4.60
   2  11   1   37.70    5.00
   2  11   1   52.19    5.80
  -2  11  -1   40.60    4.50
  -3  11   1    4.80    1.80
   3  11  -1    5.90    2.10
   3  11   1    8.70    2.90
   3  11   1    4.00    2.10
   4  11  -1  130.99   12.10
   4  11   1  126.19   12.00
   4  11   1  124.19   12.10
   5  11  -1    0.60    2.00
   5  11   1    5.30    2.60
   5  11   1   -0.10    2.10
   0  12  -1   -0.20    1.70
   0  12   1   -1.30    1.80
   0  12   1    0.10    1.90
  -1  12   1    1.10    1.80
   1  12  -1    1.70    2.10
  -1  12   1    0.20    1.70
  -1  12  -1    4.70    2.00
   1  12   1    3.40    1.90
   1  12   1    1.80    2.10
   2  12  -1  135.89   11.60
  -2  12   1  110.59   10.70
  -2  12  -1  113.19   10.50
   2  12   1  149.99   11.90
   2  12   1  128.09   11.50
  -3  12   1    0.20    1.90
   3  12  -1    6.10    2.60
   3  12   1    0.20    2.10
   3  12   1    4.70    2.90
   0  13  -1  182.08   16.10
   0  13   1  223.78   16.30
   0  13   1  174.88   16.20
  -1  13   1    2.30    3.10
   1  13  -1    1.00    2.00
  -1  13   1   -0.40    2.20
   1  13   1    5.90    2.30
   1  13   1    4.30    2.50
  -1  13  -1   -1.50    1.90
   0   0  -2 5921.81  433.86
   0   0   2 5573.54  467.55
  -1   0  -2   69.89    5.10
  -1   0   2   62.89    5.10
   1   0  -2   63.19    5.00
  -2   0  -2 2131.49  156.48
   2   0   2 2228.98  156.68
  -2   0  -2 2052.19  156.28
   2   0   2 2137.79  156.28
   3   0   2 1010.70   75.49
  -3   0  -2  976.60   75.39
   3   0   2 1069.99   75.39
  -3   0  -2 1032.60   75.19
   4   0   2  987.60   66.19
   4   0   2  802.92   66.19
   5   0   2   -0.60    0.70
   5   0   2    0.40    0.50
   5   0  -2   -0.10    0.60
   6   0   2 1311.77   95.19
   6   0  -2 1231.28   95.49
   6   0   2 1321.77   95.49
   7   0   2   15.40    2.50
   7   0  -2   11.90    2.60
   7   0   2   11.70    2.50
   7   0  -2   19.60    3.10
   8   0   2   23.60    3.80
   8   0  -2   25.20    4.00
   9   0   2   10.10    2.20
   9   0  -2    9.50    2.50
   9   0   2    5.60    2.00
   9   0  -2    6.60    2.10
   0   1   2    0.40    0.40
   0  -1  -2    1.10    0.50
   0   1   2    0.30    0.40
   0  -1   2    0.50    0.40
   1  -1   2 1035.90   69.79
  -1   1   2 1030.50   70.09
  -1   1   2  949.40   69.79
   1  -1   2  926.61   69.89
   1   1   2  940.01   69.99
   1  -1  -2  934.41   69.99
  -1   1  -2  868.61   69.89
   1   1   2  944.71   69.99
  -2  -1  -2 4906.51  353.56
  -2   1  -2 4766.32  353.36
   3  -1   2   45.00    4.20
  -3  -1  -2   59.29    4.40
   3   1   2   42.00    4.30
   4   1  -2 1638.94  122.59
   4  -1   2 1695.53  122.19
   4  -1   2 1639.44  121.99
  -4  -1  -2 1639.64  122.39
   4   1  -2 1732.03  122.79
   4   1   2 1665.93  122.29
   4   1   2 1635.04  122.49
   5  -1   2    3.00    0.90
  -5  -1  -2    6.10    1.80
   5  -1   2    4.60    1.30
   5   1  -2    1.60    1.00
   5   1   2    2.60    1.10
   5   1   2    3.60    1.20
   6   1  -2   79.49    7.70
   6  -1   2   95.49    7.30
   6   1   2   82.89    7.50
   6  -1  -2   78.99    7.40
   7  -1   2   29.80    3.30
   7   1  -2   28.30    3.70
   7   1  -2   31.10    4.00
   7  -1   2   28.20    3.60
   7  -1  -2   33.60    3.60
   7   1   2   27.90    3.50
   7   1   2   34.60    4.10
   7  -1  -2   26.70    3.50
   8  -1   2  844.92   63.89
   8   1  -2  856.11   64.29
   8  -1   2  827.02   63.69
   8   1  -2  903.71   64.49
   8   1   2  883.71   64.19
   8   1   2  856.21   64.29
   8  -1  -2  866.41   64.09
   8  -1  -2  792.32   63.79
   9   1  -2   -1.10    1.30
   9   1  -2   -1.40    1.20
   9  -1   2    0.70    1.20
   9  -1   2    0.80    1.50
   9   1   2    1.30    1.70
   9  -1  -2   -1.20    1.20
   9   1   2   -1.00    1.20
   9  -1  -2    0.50    1.40
   0   2   2 6295.37  584.44
   0  -2   2 7779.52  523.95
   0   2  -2 6413.06  520.35
   1  -2   2  310.17   22.50
   1   2  -2  308.67   22.60
  -1  -2  -2  285.67   22.60
  -1   2   2  334.57   22.60
  -1  -2  -2  301.97   22.60
  -1   2  -2  276.57   22.40
   1   2   2  307.17   22.60
   1   2   2  282.27   22.60
   1  -2  -2  320.57   22.50
   2  -2   2  752.82   56.59
  -2  -2  -2  760.22   56.89
  -2   2  -2  755.82   56.59
   2   2   2  789.72   56.89
   2   2   2  796.82   56.99
   2  -2  -2  768.42   56.69
   3   2  -2  166.28   12.50
   3  -2   2  158.08   11.90
   3   2  -2  153.78   13.70
   3   2   2  150.58   12.30
   3   2   2  171.08   13.60
   3  -2  -2  149.99   13.00
  -3   2  -2  151.88   12.00
   3  -2  -2  150.48   12.10
   4  -2   2 1252.87   83.39
   4   2  -2 1104.09   84.79
   4   2   2 1103.99   83.89
  -4   2  -2 1110.49   83.49
   4  -2  -2 1088.29   84.09
   5  -2   2   54.49    4.40
  -5  -2  -2   55.69    5.70
   5   2  -2   37.30    4.50
   5  -2   2   41.40    3.90
   5  -2  -2   52.99    4.20
   5   2   2   47.10    4.80
   5   2   2   35.80    4.30
   6  -2   2 1105.59   79.89
   6  -2   2 1152.48   79.69
   6   2  -2  994.70   80.39
   6  -2  -2 1129.29   79.79
   6   2   2 1052.79   80.49
   6  -2  -2 1033.90   79.99
   7   2  -2   45.70    4.80
   7  -2   2   40.60    3.80
   7  -2   2   38.40    4.10
   7  -2  -2   32.50    4.00
   7  -2  -2   39.00    4.00
   7   2   2   39.30    4.40
   7   2   2   34.50    4.70
   8  -2   2   61.29    6.30
   8   2  -2   76.19    7.40
   8  -2  -2   73.29    6.70
   8   2   2   69.19    7.10
   0   3  -2    0.40    0.50
   0   3  -2    1.80    0.60
   0  -3   2    1.00    0.70
   0   3   2    1.20    0.70
   0   3   2    1.00    0.50
   0  -3  -2    1.10    0.50
   1   3  -2 1047.00   76.59
  -1   3   2 1123.69   76.49
   1  -3   2 1015.20   76.29
   1   3  -2 1008.70   76.49
  -1  -3  -2 1050.99   76.59
  -1   3  -2  955.80   76.29
   1   3   2 1056.89   76.59
   1   3   2 1018.40   76.59
   1  -3  -2 1093.09   76.49
   2  -3   2 2301.47  181.48
   2   3  -2 2630.64  182.08
  -2  -3  -2 2579.24  181.98
  -2   3   2 2415.66  181.98
   2   3   2 2434.16  181.98
   2  -3  -2 2309.77  183.68
   2  -3  -2 2729.13  181.68
   2   3   2 2654.93  181.98
  -2   3  -2 2285.07  181.48
   3   3  -2    7.40    1.70
  -3  -3  -2    6.00    1.30
  -3  -3  -2    6.20    2.10
   3   3  -2   10.40    3.30
  -3   3  -2    5.60    1.10
   3  -3  -2    8.80    2.40
   3   3   2    8.20    1.70
   3  -3  -2    7.00    1.30
   3   3   2    6.60    1.50
   4  -3   2 2195.08  152.38
   4   3  -2 1897.61  153.08
   4   3  -2 2195.38  155.08
   4   3   2 1988.00  153.08
   4  -3  -2 2128.59  152.58
  -4   3  -2 2213.18  154.78
  -4   3  -2 2145.89  152.48
   4  -3  -2 2092.59  154.18
   4   3   2 1871.01  152.88
   5   3  -2   43.50    4.80
   5  -3   2   44.70    4.00
  -5  -3  -2   38.10    5.50
   5   3   2   36.00    4.30
   5  -3  -2   50.39    4.20
  -5   3  -2   42.00    5.10
   6  -3   2   55.49    4.80
   6  -3  -2   53.29    4.60
   6   3   2   40.70    5.60
   7  -3   2   62.39    5.40
   7   3  -2   56.89    6.20
   7  -3   2   54.89    5.10
   7   3   2   52.99    5.80
   7  -3  -2   48.10    5.30
   7   3   2   71.79    6.70
   7  -3  -2   65.09    5.30
   8  -3   2  759.52   57.39
   8   3  -2  772.32   58.49
   8  -3   2  773.02   56.99
   8   3  -2  843.82   58.79
   8  -3  -2  714.43   57.09
   8   3   2  788.82   58.29
   8  -3  -2  736.53   57.59
   8   3   2  770.22   58.59
   0   4  -2 1832.52  137.89
   0  -4  -2 1917.41  138.09
   0  -4  -2 1752.52  140.99
   0   4   2 1756.02  137.89
   0   4  -2 1933.11  138.09
   0   4   2 2093.79  138.09
  -1  -4  -2   87.69   10.80
  -1   4   2   92.19    7.90
  -1  -4  -2  108.39    8.50
   1   4  -2  111.59    8.50
   1   4  -2  106.39    8.40
   1  -4  -2  118.59    8.30
   1   4   2  117.09    8.50
   1  -4  -2   90.79   10.50
  -1   4  -2  102.09    8.10
  -1   4  -2  114.69    8.00
   1   4   2   92.69    8.40
   2   4  -2  687.33   57.19
  -2  -4  -2  734.83   57.29
  -2  -4  -2  690.13   54.19
   2  -4   2  728.33   53.69
  -2   4   2  764.52   53.89
   2   4  -2  753.12   54.39
   2  -4  -2  742.53   56.89
  -2   4  -2  695.53   53.59
   2   4   2  759.22   54.29
   2  -4  -2  748.63   53.79
   2   4   2  720.63   54.19
   3   4  -2  154.78   12.90
  -3  -4  -2  140.09   15.00
   3   4  -2  166.08   15.50
  -3   4  -2  155.18   15.00
   3   4   2  158.48   12.70
   3   4   2  159.18   12.90
  -3   4  -2  156.48   12.10
   3  -4  -2  174.68   12.20
   3  -4  -2  156.88   14.80
  -4  -4  -2  620.54   53.79
   4   4  -2  709.13   54.09
   4  -4   2  700.13   50.39
   4   4  -2  756.32   51.59
   4   4   2  740.83   51.39
   4  -4  -2  638.84   53.29
  -4   4  -2  669.23   50.59
   4   4   2  640.64   51.39
  -4   4  -2  671.53   53.89
   5  -4   2   12.70    1.60
  -5  -4  -2   10.20    3.80
   5   4  -2   10.20    2.40
  -5   4  -2   14.50    3.80
   5   4   2   10.30    2.30
   5  -4  -2   13.40    1.70
   5   4   2   12.00    2.50
   6   4  -2 1363.76  103.69
   6  -4   2 1418.36  102.49
   6   4   2 1319.57  103.49
   6   4   2 1472.35  103.89
   7  -4   2   68.79    6.10
   7   4  -2   72.99    7.30
   7   4   2   88.29    7.50
   7   4   2   75.89    7.60
   7  -4  -2   61.19    6.20
   8   4  -2   17.00    4.00
   8  -4  -2   14.30    2.70
   8   4   2   18.80    3.60
   0   5  -2    0.30    0.70
   0   5   2    1.00    0.70
   0   5  -2   -1.00    2.00
   0  -5  -2    0.70    0.80
   0   5  -2    2.10    0.90
   0  -5  -2    2.00    2.10
   0   5   2    1.10    0.80
   1   5  -2   15.70    1.90
   1   5  -2   14.90    2.20
   1   5  -2    8.90    3.90
  -1  -5  -2   10.70    2.30
  -1   5  -2   10.50    4.10
   1  -5  -2   14.40    1.70
   1  -5  -2   10.30    3.90
  -1   5  -2   12.70    1.70
  -1   5  -2   16.90    1.60
   1   5   2   15.00    1.80
   1   5   2    8.90    1.90
   2   5  -2 1772.42  123.19
  -2   5  -2 1595.04  122.39
   2  -5  -2 1656.63  126.49
   2   5   2 1634.64  123.09
   2   5   2 1700.43  123.09
   3   5  -2    6.50    1.70
   3   5  -2    9.40    3.80
  -3   5   2   13.00    2.00
   3   5   2    7.20    1.90
  -3   5  -2   10.40    3.50
   3  -5  -2   14.70    4.20
   3  -5  -2    9.00    1.50
   3   5   2    7.20    1.70
  -3   5  -2   10.80    1.40
  -4  -5  -2 1049.40   79.49
   4  -5   2 1030.80   74.59
   4   5  -2  888.71   75.59
   4   5  -2 1136.99   79.69
   4  -5  -2 1001.40   74.79
   4   5   2  890.61   75.49
   4   5   2 1019.70   75.89
  -4   5  -2 1077.19   78.79
  -4   5  -2 1086.19   74.79
   5   5  -2    1.50    1.20
   5  -5   2    4.20    0.90
  -5  -5  -2    8.60    3.40
  -5   5  -2    4.70    2.80
   5   5   2    9.30    2.60
   5  -5  -2    3.80    1.10
   5   5   2    3.20    1.70
   6   5  -2   58.89    7.70
   6   5   2   67.79    7.00
   6  -5  -2   71.49    5.90
   7  -5   2    0.90    0.90
   7   5  -2    1.00    1.40
   7   5   2    1.60    1.80
   7  -5  -2    0.50    0.90
   7   5   2    0.20    1.20
   8   5  -2  594.74   44.10
   8   5  -2  573.54   44.10
   8   5   2  568.04   44.10
   8  -5  -2  518.85   42.20
   8   5   2  571.64   43.70
   0   6   2 3519.95  245.48
   0   6  -2 3190.28  250.17
   0   6   2 3445.16  245.28
   0   6  -2 3446.66  245.28
   0  -6  -2 3178.28  245.38
   0  -6  -2 3327.17  250.17
   0   6  -2 3327.67  245.28
  -1  -6  -2   29.80    6.90
  -1   6   2   25.20    2.30
   1   6  -2   18.10    4.70
  -1   6   2   27.10    2.80
   1   6  -2   21.60    2.70
   1   6  -2   20.50    2.90
  -1   6  -2   24.70    2.50
   1   6   2   21.00    2.70
   1   6   2   24.60    2.90
  -1   6  -2   27.00    6.30
   1  -6  -2   25.50    2.60
  -1   6  -2   24.30    2.40
  -2  -6  -2  200.68   19.40
   2   6  -2  152.28   18.30
  -2   6   2  199.18   14.50
   2   6  -2  175.28   14.90
   2   6   2  172.48   14.80
   2  -6  -2  197.88   18.90
  -2   6  -2  181.58   14.10
  -2   6  -2  200.48   19.10
   2  -6  -2  190.18   14.40
   2   6   2  198.38   15.00
  -3   6   2   62.29    6.10
   3  -6   2   81.99    6.00
   3   6  -2   62.99    6.60
   3   6  -2   81.19   10.40
  -3   6  -2   83.39    5.90
   3  -6  -2   88.49   10.30
   3   6   2   86.09    7.10
   3   6   2   59.19    7.30
   3  -6  -2   62.99    5.90
   4   6  -2  440.06   33.40
   4   6  -2  428.96   37.40
  -4  -6  -2  398.46   37.20
   4   6   2  455.95   33.40
  -4   6  -2  436.56   36.80
   4   6   2  425.46   33.40
  -5  -6  -2    4.00    2.90
   5   6  -2    4.10    1.50
   5   6   2    5.00    2.00
   5   6   2    6.10    2.00
   5  -6  -2    5.00    1.30
  -5   6  -2    5.10    2.80
   6   6  -2  534.75   40.40
   6  -6  -2  459.65   38.60
   6   6   2  545.75   40.40
   6   6   2  554.14   40.30
   7   6  -2    1.80    1.70
   7   6   2   -1.20    1.50
   7   6   2   -0.30    1.50
   7  -6  -2   -0.30    0.90
   8   6  -2   38.90    6.20
   8   6   2   45.00    5.90
   0   7   2    1.30    1.10
   0  -7  -2    0.00    3.00
   0   7   2    1.40    1.00
   0   7  -2    2.20    1.00
   0   7  -2   -0.30    3.20
   0   7  -2    1.00    1.00
   1   7  -2   35.60    4.00
  -1   7   2   38.50    4.00
  -1  -7  -2   39.00    8.70
  -1   7   2   42.50    3.60
   1   7  -2   41.10    9.00
  -1   7  -2   40.00    8.10
  -1   7  -2   44.50    3.70
   1   7   2   37.70    4.00
   1  -7  -2   39.60    3.80
   1   7   2   32.60    4.00
   1  -7  -2   37.10    8.10
  -1   7  -2   41.60    3.70
   2   7  -2  978.80   76.79
  -2   7   2 1093.19   76.39
  -2  -7  -2 1067.99   82.99
  -2   7  -2 1088.39   83.99
   2  -7  -2 1045.40   76.29
   2   7   2  948.41   76.79
   2   7   2  956.20   76.89
  -2   7  -2 1045.10   75.99
   2  -7  -2 1154.08   88.09
   3   7  -2    9.00    4.60
   3   7  -2    8.30    2.00
  -3   7   2   13.80    2.10
  -3  -7  -2    7.50    4.40
   3   7   2    9.40    2.20
   3  -7  -2    9.80    4.60
   3   7   2    6.20    1.80
  -3   7  -2    8.70    1.40
  -3   7  -2   10.00    4.70
   3  -7  -2   11.40    1.70
   4   7  -2  641.54   50.29
  -4  -7  -2  567.64   49.90
   4   7  -2  548.45   44.80
  -4   7  -2  626.04   49.40
   4   7   2  624.04   45.00
   4  -7  -2  583.14   44.70
   4   7   2  546.95   44.70
   5   7  -2    5.50    2.00
   5   7   2    6.00    2.10
   5  -7  -2    1.90    1.30
   5   7   2    5.30    1.80
  -5   7  -2    6.50    3.70
   6   7  -2   27.50    4.70
   6   7   2   28.70    5.40
   7   7  -2   23.00    4.60
   7   7   2   27.70    5.10
   7   7   2   25.90    4.60
   0   8   2 1010.60   79.49
   0   8   2 1113.69   79.39
   0   8  -2 1071.99   79.49
   0   8  -2 1120.69   86.49
   0  -8  -2 1057.69   86.09
  -1   8   2    4.60    1.10
   1   8  -2   -1.80    2.60
  -1   8   2    2.20    1.20
   1   8  -2    4.80    1.50
  -1   8   2    2.00    1.00
  -1  -8  -2    4.70    4.20
  -1   8  -2    0.60    1.00
   1   8   2    1.40    1.40
  -1   8  -2    3.60    1.30
   1   8   2    4.90    1.40
  -1   8  -2    3.00    4.00
   1  -8  -2    3.20    2.70
   2   8  -2  160.48   14.10
  -2   8   2  170.48   13.70
   2   8  -2  175.78   19.80
  -2  -8  -2  217.08   21.20
   2   8   2  157.28   14.10
   2  -8  -2  150.08   13.60
  -2   8  -2  184.48   13.30
   2   8   2  191.18   14.90
   2  -8  -2  203.78   20.60
  -3  -8  -2  105.29   14.20
   3   8  -2   83.79    8.10
  -3   8   2   81.09    7.40
   3   8  -2   82.19   12.70
   3   8   2  103.89    8.60
  -3   8  -2  104.09   13.30
   3   8   2   93.79    8.30
   3  -8  -2   78.19    7.30
   4   8  -2  287.77   20.90
   4   8  -2  215.08   24.70
   4  -8  -2  245.48   19.30
   4   8   2  275.57   20.70
  -4   8  -2  231.78   24.80
   4   8   2  243.78   20.70
   5   8  -2    7.10    2.00
   5   8   2   10.20    2.70
   5   8   2    5.30    1.70
   5  -8  -2    2.90    1.20
   6   8  -2  458.55   38.10
   6   8   2  465.05   38.00
   6   8   2  535.65   38.40
   7   8  -2   -0.60    1.40
   7   8   2    1.80    2.10
   7   8   2    1.20    1.70
   0   9   2    0.10    1.20
   0   9  -2   -0.70    1.30
   0  -9  -2   -1.80    3.00
   0   9   2    2.50    2.60
   0   9  -2    0.70    3.60
  -1  -9  -2   15.40    6.00
   1   9  -2   14.20    2.90
  -1   9   2   25.30    2.60
   1   9  -2   17.20    6.60
  -1   9   2   21.70    3.20
  -1   9   2   21.50    2.60
  -1   9  -2   19.30    6.60
   1  -9  -2   17.90    6.30
  -1   9  -2   21.00    2.70
   1   9   2   16.80    3.10
   1   9   2   25.40    3.20
  -2   9   2  466.75   37.10
   2   9  -2  508.25   44.90
  -2  -9  -2  516.95   45.30
   2   9  -2  471.45   37.70
  -2   9  -2  473.95   36.60
   2   9   2  476.95   37.70
   2   9   2  528.15   37.90
  -2   9  -2  499.45   44.40
  -2   9  -2  511.95   36.70
  -3   9   2    6.00    1.60
   3   9  -2   -5.90    3.30
   3   9  -2    2.00    1.50
  -3  -9  -2    4.00    4.90
   3   9   2    5.80    2.20
  -3   9  -2    2.30    4.50
   3   9   2    4.10    1.70
   4   9  -2  371.66   30.00
   4   9   2  370.26   30.00
  -4   9  -2  410.76   36.60
   5   9  -2    9.30    4.30
   5   9   2    0.10    3.20
   6   9  -2   17.90    4.00
   6   9   2   19.40    4.00
   0  10  -2  527.95   43.20
   0  10  -2  654.03   53.29
   0  10   2  615.34   43.10
   0  10   2  529.25   43.20
   1  10  -2    4.30    5.60
  -1  10   2    3.30    1.80
  -1  10   2    6.60    1.50
  -1  10   2    2.80    1.30
   1  10  -2    6.10    1.90
  -1  10  -2    2.70    1.40
  -1  10  -2    4.40    4.70
   1  10   2    3.00    1.80
   1  10   2    6.40    1.90
   2  10  -2   57.09    6.10
  -2  10   2   53.49    5.50
   2  10  -2   68.39   14.10
   2  10   2   51.69    6.10
   2  10   2   64.99    6.30
  -2  10  -2   51.99   12.60
  -2  10  -2   54.59    5.20
  -3  10   2    1.40    1.50
   3  10  -2   -0.40    1.20
   3  10   2    1.90    1.60
  -3  10  -2    1.10    6.90
   3  10   2    0.90    1.60
   4  10  -2  181.68   15.00
   4  10   2  166.38   15.20
   4  10   2  160.28   14.90
   5  10  -2    7.50    2.70
   5  10   2    5.60    2.60
   5  10   2   10.10    3.00
   0  11  -2   -3.10    5.10
   0  11  -2   -0.80    1.60
   0  11   2    1.90    1.70
   1  11  -2    1.30    1.60
  -1  11   2    0.50    1.80
  -1  11   2    3.50    1.50
   1  11  -2    6.20   10.40
  -1  11  -2    2.30    1.80
   1  11   2    2.80    1.60
   1  11   2   -0.10    1.60
  -1  11  -2    1.90    4.90
  -2  11   2  197.78   17.20
   2  11  -2  223.08   17.90
  -2  11  -2  201.28   16.80
   2  11   2  235.88   18.10
  -2  11  -2  239.78   26.40
   2  11   2  218.38   17.90
   3  11  -2    2.10    1.60
  -3  11   2    4.60    1.80
   3  11   2    4.80    2.30
   3  11   2    1.20    1.80
   4  11  -2  186.88   16.40
   4  11   2  187.38   16.30
   5  11  -2   -0.40    1.60
   5  11   2    2.20    2.10
   0  12   2  222.78   17.10
   0  12   2  201.38   17.40
   0  12  -2  204.58   17.10
  -1  12   2    3.20    1.80
   1  12  -2    1.90    2.00
  -1  12   2    2.30    2.00
   1  12   2    4.30    2.20
   1  12   2    2.80    1.80
  -1  12  -2    2.70    1.90
  -2  12   2   51.99    5.50
   2  12  -2   40.70    5.70
  -2  12  -2   42.70    5.00
   2  12   2   61.29    6.30
   2  12   2   44.50    8.30
  -3  12   2    6.70    2.40
   3  12  -2    8.70    2.70
   3  12   2    2.90    2.40
   3  12   2    7.10    2.40
   0  13   2   -4.00    2.20
   0  13  -2   -1.60    2.00
   0  13   2    0.20    2.20
  -1  13   2    0.50    2.80
   1  13  -2   -1.40    2.10
  -1  13   2   -1.60    2.20
  -1  13  -2    2.90    2.10
   1  13   2   -1.40    2.20
   1  13   2    1.80    1.90
   0   0   3    0.90    0.50
   0   0   3    1.00    0.50
  -1   0   3   10.60    1.40
   1   0  -3   14.80    1.60
   1   0   3   11.40    1.20
   1   0   3    7.80    1.30
  -1   0  -3   10.40    1.20
  -2   0  -3 4800.42  374.96
  -2   0  -3 5461.55  374.86
   3   0  -3  138.09   10.00
   3   0   3  117.79   10.10
   4   0   3 1344.27   99.69
  -4   0  -3 1354.76   99.49
   4   0   3 1359.06   99.49
   5   0   3    9.60    2.00
   5   0   3   13.40    1.80
   6   0   3  106.69    8.60
   6   0  -3   90.49    9.80
   7   0   3   14.50    2.90
   7   0  -3   21.90    3.60
   7   0   3   17.90    2.50
   8   0   3  631.24   47.40
   8   0  -3  615.64   47.60
   8   0  -3  658.43   48.00
   8   0   3  604.94   47.60
   9   0   3   -1.60    1.40
   9   0  -3   -1.70    1.50
   0   1  -3 6655.73  486.05
   1   1  -3  644.14   48.70
  -1   1   3  659.73   48.50
  -1  -1  -3  660.33   48.70
  -1   1   3  723.83   48.90
   1  -1   3  644.04   48.60
   1  -1   3  696.53   48.60
  -1  -1  -3  601.24   48.70
   1   1   3  683.43   48.80
   1  -1  -3  628.64   48.50
  -1   1  -3  660.83   48.50
  -1   1  -3  624.74   48.70
   1   1   3  695.13   48.80
  -1  -1   3  675.03   48.70
   1  -1  -3  667.03   48.80
  -2  -1  -3  327.07   26.30
  -2  -1  -3  353.66   26.20
   2  -1   3  384.46   25.90
   2  -1  -3  353.06   25.90
  -2   1  -3  328.37   26.10
  -2   1  -3  354.16   25.90
   3  -1   3  224.98   15.70
  -3  -1  -3  223.38   16.10
   3  -1   3  194.58   15.90
  -3  -1  -3  188.88   16.10
  -3   1  -3  191.78   16.00
   3   1   3  200.08   16.20
   3  -1  -3  207.68   15.70
   3   1   3  228.78   16.00
  -3   1  -3  218.08   15.70
   4  -1   3 1210.58  100.19
   4  -1   3 1491.65   99.99
  -4  -1  -3 1480.05  100.49
   4   1   3 1484.45  100.39
   4  -1  -3 1340.37   99.99
   4   1   3 1164.28  100.39
   5   1  -3   10.40    2.20
   5  -1   3   10.60    1.40
   5  -1   3    9.40    1.90
   5   1   3   12.30    2.00
   5   1   3    7.80    1.90
   6   1  -3 1521.15  122.19
   6  -1   3 1627.44  121.79
   6  -1   3 1786.22  121.59
  -6  -1  -3 1769.72  122.39
   6   1   3 1681.63  122.19
   6   1   3 1524.75  121.79
   7  -1   3    2.30    1.40
   7   1  -3    1.90    1.30
   7  -1   3    4.50    1.10
   7   1   3    0.40    1.00
   7   1   3    1.50    1.50
   7  -1  -3    2.50    1.40
   8  -1   3   59.49    6.20
   8  -1  -3   59.79    6.00
   0  -2   3    2.00    0.70
   0  -2  -3    0.70    0.60
   0   2  -3    0.40    0.50
   0   2   3    0.60    0.60
   0  -2  -3    1.00    0.50
  -1   2   3   40.80    3.10
  -1  -2  -3   44.50    3.60
   1  -2   3   37.70    3.30
  -1   2   3   41.40    3.80
  -1  -2  -3   41.90    3.50
   1  -2  -3   38.40    3.20
  -1   2  -3   37.50    3.30
   1   2   3   39.20    3.50
  -1  -2   3   39.00    3.60
   1  -2  -3   35.80    3.40
   1   2   3   41.00    3.50
   2  -2   3 2150.08  164.88
  -2  -2  -3 2161.38  165.28
  -2  -2  -3 2400.36  165.18
   2   2  -3 2329.27  165.18
  -2   2  -3 2043.80  164.88
   2  -2  -3 2091.89  164.58
   2   2   3 2478.65  165.18
   2   2   3 2142.59  165.18
   2  -2  -3 2491.45  165.08
  -3  -2  -3   33.10    3.20
   3  -2   3   31.30    3.00
   3  -2  -3   31.30    2.70
  -3   2  -3   34.90    3.10
   3   2   3   31.80    3.20
   3   2   3   37.20    3.50
   3  -2  -3   31.60    3.10
   4  -2   3 2151.88  155.28
  -4  -2  -3 2115.99  156.08
   4  -2   3 2201.68  155.68
   4   2   3 2044.40  156.18
   4  -2  -3 2090.99  155.38
  -4   2  -3 2119.19  155.98
   4  -2  -3 2219.68  155.98
   4   2   3 2037.30  155.88
   5  -2   3   11.80    2.00
  -5  -2  -3   10.70    2.90
   5  -2   3   11.10    1.50
   5   2  -3    9.00    2.10
   5   2  -3    9.50    2.40
   5   2   3    5.40    1.80
   5  -2  -3   10.20    1.40
   5   2   3    7.80    1.70
   6  -2   3   51.69    4.60
  -6  -2  -3   36.80    5.60
   6  -2  -3   49.70    4.50
   6   2   3   42.30    5.20
   7   2  -3   -0.20    1.10
   7  -2   3   -0.10    1.00
   7  -2   3    0.30    0.80
   7   2   3    2.00    1.40
   7   2   3    1.00    1.10
   7  -2  -3    0.40    0.90
   7  -2  -3    0.30    0.90
   8   2  -3  885.41   67.39
   8   2  -3  920.01   67.49
   8  -2   3  883.71   66.19
   8  -2   3  883.21   66.49
   8   2   3  874.81   67.29
   8  -2  -3  814.52   66.39
   8  -2  -3  936.71   66.99
   8   2   3  936.31   67.09
   0   3  -3 9100.49  695.73
   0   3   3 8450.65  580.74
   0  -3  -3 7093.39  578.54
   0  -3  -3 8296.57  689.73
   0  -3   3 6396.86  658.83
   0   3   3 6226.18  661.33
  -1   3   3   91.19    6.60
   1  -3   3   80.49    6.40
   1   3  -3   79.09    6.60
  -1   3   3   77.49    6.20
  -1  -3  -3   84.39    6.70
   1   3   3   84.69    6.70
   1  -3  -3   81.09    6.20
   1   3   3   77.29    6.60
  -1   3  -3   75.09    6.40
   1  -3  -3   84.29    6.50
   2   3  -3  479.15   37.00
  -2   3   3  537.55   37.00
  -2  -3  -3  476.15   37.10
   2  -3   3  485.65   36.60
   2   3   3  510.85   37.20
  -2   3  -3  471.75   36.70
   2  -3  -3  518.25   36.90
   2   3   3  492.15   37.00
  -3  -3  -3  234.38   17.50
   3  -3   3  225.18   17.00
   3   3  -3  233.38   17.70
   3   3   3  214.28   17.40
  -3   3  -3  220.98   17.10
   3  -3  -3  221.28   17.20
   3   3   3  233.08   17.70
   4   3  -3  862.91   69.09
   4   3  -3  892.51   67.09
   4  -3   3  940.51   66.29
   4  -3  -3  951.80   65.89
   4   3   3  960.90   66.99
   4  -3  -3  829.12   68.09
  -4   3  -3  845.62   66.39
  -5  -3  -3   36.80    6.40
   5   3  -3   35.80    6.00
   5  -3   3   34.20    3.20
   5   3   3   30.40    3.90
  -5   3  -3   30.50    3.30
   5   3   3   26.80    3.50
  -6  -3  -3  826.72   63.79
   6   3  -3  840.12   62.29
   6  -3   3  810.02   61.09
  -6   3  -3  789.22   62.29
   6  -3  -3  895.11   60.99
   6  -3  -3  813.92   60.79
   6   3   3  868.41   62.29
   6   3   3  752.72   61.69
   7   3  -3   62.29    6.30
   7  -3   3   53.39    5.30
   7   3   3   62.89    6.00
   7   3   3   59.19    6.20
   7  -3  -3   53.79    4.90
   7  -3  -3   52.99    5.00
   8   3  -3   45.60    5.60
   8  -3  -3   45.80    4.90
   8   3   3   42.30    5.30
   0   4   3    1.20    0.80
   0   4  -3    1.30    0.70
   0  -4   3    2.30    1.10
   0   4  -3    0.20    0.80
   0   4   3    1.30    0.70
  -1   4   3  747.03   56.89
   1   4  -3  793.52   57.49
  -1  -4  -3  751.22   57.39
   1  -4   3  770.42   57.09
  -1   4   3  824.22   57.29
   1   4   3  819.12   57.49
  -1   4  -3  729.83   57.09
   1   4   3  752.52   57.39
  -1   4  -3  781.02   56.99
   1  -4  -3  786.62   57.29
  -2  -4  -3 2507.05  183.18
   2   4  -3 2518.75  182.98
   2   4  -3 2570.44  183.18
   2  -4   3 2461.35  182.58
  -2   4  -3 2323.17  182.58
   2   4   3 2392.26  183.08
   2   4   3 2554.74  183.08
   2  -4  -3 2655.43  182.78
   2  -4  -3 2478.25  185.88
   3  -4   3    4.60    1.00
   3   4  -3    2.60    1.10
  -3  -4  -3    5.40    2.40
   3   4  -3    2.30    2.00
   3  -4  -3    4.40    2.30
  -3   4  -3    4.90    1.00
   3   4   3    4.20    1.30
   3  -4  -3    7.30    1.20
   3   4   3    3.20    1.10
   4   4  -3 1055.49   74.49
   4  -4   3  942.91   70.29
   4   4  -3  838.92   71.09
  -4  -4  -3  993.90   74.39
  -4   4  -3 1007.90   70.49
   4   4   3  895.01   71.19
   4  -4  -3  947.51   70.49
   4  -4  -3  985.70   73.39
   5  -4   3   41.00    3.70
   5   4  -3   51.59    7.90
  -5  -4  -3   37.40    7.10
   5   4  -3   38.60    4.50
   5  -4  -3   36.60    3.80
  -5   4  -3   47.30    6.20
  -5   4  -3   43.40    4.00
   5   4   3   36.40    4.30
   5   4   3   37.30    4.50
  -6  -4  -3   23.10    5.30
   6  -4   3   25.80    2.70
  -6   4  -3   17.40    4.30
   7   4  -3   49.80    5.90
   7  -4   3   52.39    4.90
   7   4   3   54.49    5.80
   8  -4   3  731.13   50.99
   8   4  -3  678.43   51.29
   8   4   3  658.13   50.79
   8   4   3  649.24   51.19
   8  -4  -3  612.34   49.99
   0   5   3 3683.53  246.98
   0   5  -3 3447.35  246.78
   0   5   3 3174.28  246.68
   0  -5  -3 3406.06  246.98
   0  -5  -3 3132.09  250.67
   1  -5   3   12.00    1.80
  -1  -5  -3   14.30    1.90
  -1   5   3   12.60    1.50
  -1  -5  -3   17.20    5.50
  -1   5   3   13.60    2.00
   1   5  -3   12.30    2.10
   1   5  -3   10.20    1.90
   1  -5  -3   14.20    4.30
   1   5   3   15.30    1.90
   1   5   3   13.60    2.10
  -1   5  -3   11.30    1.70
   1  -5  -3    8.60    1.90
  -1   5  -3   10.90    1.40
   2  -5   3  532.85   37.90
  -2   5   3  524.85   38.20
  -2  -5  -3  568.14   43.20
   2   5  -3  470.85   42.30
   2   5  -3  480.05   38.50
   2   5   3  515.85   38.50
  -2   5  -3  506.95   37.90
   2  -5  -3  499.75   38.20
   3   5  -3   13.70    4.70
  -3   5   3   18.10    2.40
   3   5  -3   12.90    2.40
   3  -5   3   13.60    1.70
  -3   5  -3   12.20    1.70
   3   5   3   12.60    2.30
   3  -5  -3   12.90    4.40
   3  -5  -3   16.80    2.00
   3   5   3   12.10    2.40
  -3   5  -3   14.00    4.30
   4   5  -3  512.85   37.00
   4   5  -3  503.15   40.50
   4  -5   3  483.75   35.60
  -4  -5  -3  463.05   40.20
   4   5   3  462.05   36.70
  -4   5  -3  501.75   40.10
   4  -5  -3  443.26   39.10
   4   5   3  474.55   36.60
  -4   5  -3  481.15   35.80
  -5  -5  -3   11.90    4.70
   5   5  -3   12.00    2.60
   5   5  -3   11.00    4.40
   5  -5   3   12.80    1.70
   5   5   3    9.70    2.30
   5   5   3   12.00    2.50
   5  -5  -3   14.10    2.00
  -5   5  -3   12.30    3.80
   6  -5   3  821.02   65.29
  -6  -5  -3  919.61   70.49
   6   5  -3  894.31   66.99
  -6   5  -3  848.02   68.49
   6   5   3  870.91   66.59
   6   5   3  977.90   67.19
   7   5  -3    8.20    2.20
   7  -5   3    5.30    1.30
   7   5   3    5.80    2.30
   7   5   3    8.40    2.10
   8   5  -3   26.80    4.80
   8   5   3   29.40    4.70
   8  -5  -3   24.00    3.70
   0   6   3   -0.80    0.70
   0   6  -3    1.40    0.70
   0  -6  -3    1.00    0.70
   0   6  -3    0.90    0.80
   0   6   3   -0.30    0.90
   0   6  -3   -4.50    2.20
   0  -6  -3    3.30    2.70
  -1  -6  -3   20.10    5.60
  -1   6   3   16.40    2.30
   1   6  -3   11.70    4.50
   1   6  -3   16.30    2.30
  -1   6  -3   20.10    6.70
   1   6   3   16.30    2.50
   1  -6  -3   14.70    2.30
  -1   6  -3   18.50    2.10
   1   6   3   18.50    2.30
   1  -6  -3   15.70    4.60
  -1   6  -3   17.70    1.90
   2   6  -3 1466.45  113.79
  -2   6   3 1638.94  113.49
  -2  -6  -3 1578.14  118.79
   2  -6   3 1667.03  113.19
   2   6   3 1462.85  113.69
  -2   6  -3 1607.84  118.99
   2  -6  -3 1615.24  113.39
   2   6   3 1406.46  113.69
  -2   6  -3 1450.65  112.99
   2  -6  -3 1535.25  118.19
   3  -6   3   25.30    2.50
   3   6  -3   23.90    6.30
  -3   6   3   27.80    2.90
   3  -6  -3   15.50    4.80
   3   6   3   17.80    3.10
   3  -6  -3   22.20    2.50
  -3   6  -3   20.00    2.30
   4   6  -3  772.02   57.79
   4   6  -3  622.64   52.69
  -4  -6  -3  703.03   57.39
   4  -6   3  694.33   51.59
   4   6   3  736.03   52.89
  -4   6  -3  680.73   51.69
  -4   6  -3  802.52   57.49
   4  -6  -3  748.63   56.79
   4   6   3  641.24   52.59
   4  -6  -3  664.13   51.79
  -5  -6  -3   -2.00    3.20
   5   6  -3    1.50    3.80
   5   6  -3    2.50    1.40
   5  -6   3    1.80    0.90
   5   6   3    2.10    1.30
  -5   6  -3    3.00    2.60
  -5   6  -3    2.50    1.00
   5   6   3    3.00    1.40
   5  -6  -3    0.90    0.90
   6   6  -3   34.10    4.90
   6   6   3   22.80    4.40
  -6   6  -3   15.10    5.00
   7   6  -3   27.90    4.60
   7   6   3   29.60    6.10
   7   6   3   27.40    4.80
   0   7   3 1177.68   87.49
   0  -7  -3 1167.38   93.19
   0   7  -3 1208.88   93.89
   0   7  -3 1238.08   87.59
   0   7   3 1138.99   87.69
   1   7  -3   38.20    4.10
  -1   7   3   43.40    3.70
  -1   7   3   37.70    4.00
  -1  -7  -3   56.49   11.40
   1   7  -3   29.40    7.60
  -1   7  -3   45.70    9.70
   1   7   3   39.30    4.10
  -1   7  -3   46.20    3.80
  -1   7  -3   40.10    3.90
   1   7   3   34.30    4.10
   1  -7  -3   58.49   10.40
   2   7  -3  192.48   17.10
  -2   7   3  210.38   16.80
   2  -7  -3  254.07   22.80
  -2   7  -3  237.58   29.00
  -2   7  -3  238.78   16.50
   2   7   3  221.48   17.20
   2  -7  -3  207.38   16.70
   2   7   3  197.58   17.10
  -3  -7  -3   43.80    8.90
   3   7  -3   55.79    5.50
  -3   7   3   47.50    4.90
   3   7  -3   46.10    8.60
   3  -7   3   57.09    4.70
   3  -7  -3   47.10    4.60
   3  -7  -3   61.69   11.10
  -3   7  -3   71.29    9.80
  -3   7  -3   49.90    4.50
   3   7   3   45.70    5.20
   3   7   3   58.69    5.60
   4   7  -3  430.36   32.30
   4  -7   3  438.26   30.90
   4   7  -3  403.96   37.10
   4   7   3  423.96   32.20
  -4   7  -3  373.86   36.10
   4   7   3  440.66   32.20
   4  -7  -3  393.16   31.10
   4  -7  -3  373.16   36.20
   5   7  -3   14.70    5.50
  -5  -7  -3   12.90    5.70
   5   7  -3    6.10    2.00
   5  -7  -3    8.00    1.80
   5   7   3    8.60    2.30
  -5   7  -3   10.80    5.20
   5   7   3    8.90    2.50
   6   7  -3  666.53   51.19
  -6   7  -3  648.34   54.19
   6   7   3  643.64   50.79
   6   7   3  696.83   51.29
   7   7  -3    0.80    1.60
   7   7   3    2.20    1.90
   7   7   3    3.50    2.00
   0   8   3   -1.20    1.00
   0   8   3   -0.50    0.90
   0   8  -3   -2.90    3.10
   0   8  -3    1.20    1.10
   0  -8  -3   -3.00    2.40
  -1   8   3   41.60    4.70
   1   8  -3   41.10    4.70
  -1   8   3   55.19    4.40
  -1  -8  -3   69.29   13.90
   1   8  -3   61.09   12.40
  -1   8  -3   47.50    4.40
   1   8   3   41.20    4.80
  -1   8  -3   41.40    9.40
   1   8   3   53.99    4.90
   1  -8  -3   49.30   11.00
   2   8  -3  639.64   50.39
  -2  -8  -3  728.83   57.49
   2   8  -3  644.04   56.39
  -2   8   3  667.43   49.99
   2  -8  -3  716.53   56.99
   2   8   3  666.13   50.39
  -2   8  -3  701.83   56.89
  -2   8  -3  642.84   49.50
   2   8   3  654.43   50.39
   3   8  -3    5.30    4.90
  -3   8   3   15.40    2.50
  -3  -8  -3    7.10    5.30
   3   8  -3    9.20    2.40
   3   8   3   13.50    2.60
   3   8   3   11.20    2.80
  -3   8  -3    5.40    4.60
   3  -8  -3    8.50    4.00
   4   8  -3  479.95   39.80
   4   8  -3  542.95   46.10
  -4   8  -3  530.55   45.30
   4   8   3  481.75   39.70
   4   8   3  564.24   40.10
   5   8  -3   16.70    3.60
  -5  -8  -3   23.50    7.30
   5   8   3   22.00    3.80
   5   8   3   19.30    4.10
  -5   8  -3   16.50    6.50
   6   8  -3   22.30    4.30
   6   8   3   21.70    4.20
   7   8  -3   -0.50    2.00
   7   8   3    0.60    1.80
   7   8   3   -1.30    1.60
   0   9   3  800.12   63.49
   0  -9  -3  880.11   71.29
   0   9   3  857.11   63.19
   0   9  -3  819.72   63.19
   0   9  -3  935.81   71.79
   1   9  -3    2.10    1.30
  -1  -9  -3    5.50    4.50
  -1   9   3    0.90    1.30
   1   9  -3    3.60    4.50
  -1   9   3    1.10    1.10
   1   9   3    2.90    1.30
  -1   9  -3    0.10    1.00
   1  -9  -3    2.60    3.70
  -1   9  -3    1.00    4.00
   1   9   3   -0.70    1.30
   2   9  -3  104.79   17.50
  -2  -9  -3  112.09   16.10
  -2   9   3   94.29    8.70
   2   9  -3  101.99    9.20
   2   9   3  105.69    9.30
  -2   9  -3   98.59    8.20
   2  -9  -3  119.59   15.70
  -2   9  -3  137.59   16.60
   2   9   3   94.79    9.20
  -3   9   3    0.10    1.30
   3   9  -3    1.60    1.30
   3   9  -3   -0.90    4.50
  -3  -9  -3   -4.60    3.40
  -3   9  -3    3.40    3.90
   3  -9  -3    2.20    3.60
   3   9   3   -1.10    1.40
   3   9   3    0.50    1.40
  -3   9  -3   -2.30    0.90
   4   9  -3  210.98   24.90
   4   9  -3  249.88   19.60
  -4  -9  -3  207.48   25.00
   4   9   3  243.08   19.50
  -4   9  -3  203.18   24.40
   4   9   3  248.08   19.40
   5   9  -3   12.80    3.80
   5   9   3    9.00    2.80
   6   9  -3  271.27   22.80
   6   9   3  279.37   22.80
   6   9   3  264.77   22.60
   0  10  -3   -2.00    1.40
   0  10   3   -0.10    1.40
   0  10  -3    0.40    5.30
   0 -10  -3    0.10    4.70
   0  10   3   -1.80    1.40
  -1  10   3    9.60    1.90
   1  10  -3    3.80    5.40
  -1  10   3    9.30    2.30
  -1 -10  -3    8.90    5.10
  -1  10   3    7.70    1.70
   1  10  -3   11.20    2.40
  -1  10  -3    3.40    5.50
   1  10   3    8.60    2.20
   1 -10  -3    7.60    5.50
  -1  10  -3    8.60    2.00
   1  10   3   10.60    2.60
   2  10  -3  302.57   24.20
  -2 -10  -3  356.96   33.40
   2  10  -3  346.77   33.10
  -2  10   3  269.87   23.50
  -2  10  -3  312.07   31.80
   2  10   3  307.87   24.10
   2  10   3  305.67   24.20
   2 -10  -3  322.07   32.00
  -2  10  -3  290.97   23.00
   3  10  -3   10.10    2.50
  -3 -10  -3    8.90    6.10
  -3  10   3    5.30    2.00
   3  10  -3    6.10    6.00
   3  10   3    6.80    2.50
   3  10   3    7.10    2.50
   4  10  -3  251.57   21.50
   4  10  -3  282.67   28.70
   4  10   3  260.77   23.00
  -4  10  -3  256.87   29.70
   5  10  -3    0.60    1.50
   5  10   3    2.00    1.90
   5  10   3   -1.90    1.40
   0 -11  -3  370.46   36.60
   0  11   3  329.27   26.70
   0  11  -3  356.46   36.20
   0  11  -3  332.47   26.40
  -1  11   3    4.00    1.50
  -1  11   3    1.40    1.50
   1  11  -3    3.80    1.90
  -1 -11  -3   -5.70    4.90
   1  11   3    5.10    2.00
  -1  11  -3    2.20    1.60
   1  11   3    2.70    1.60
  -1  11  -3   10.90    6.90
  -2  11   3   71.99    7.30
   2  11  -3   99.09   18.30
   2  11  -3   78.69    7.80
  -2  11  -3   77.79   15.80
  -2  11  -3   72.49    6.70
   2  11   3   89.69    8.00
   2  11   3   67.29    7.50
  -3  11   3   10.10    2.60
   3  11  -3    8.90    2.60
   3  11  -3   14.90    7.90
   3  11   3    7.30    3.30
  -3  11  -3   13.60    6.70
   3  11   3   10.40    2.90
   4  11  -3   81.19    7.90
  -4  11   3   53.19    7.00
   4  11   3   74.29    7.90
   4  11   3   71.19    7.70
   0  12   3   -0.20    1.90
   0  12  -3   11.50    7.60
   0  12   3   -2.30    1.60
   0  12  -3    0.50    2.00
  -1  12   3    2.10    2.00
   1  12  -3   -1.20    6.60
   1  12  -3    1.40    1.80
  -1  12   3   -0.10    1.60
   1  12   3    4.40    2.10
  -1  12  -3    2.80    1.90
  -1  12  -3   -6.80    5.80
   1  12   3    2.30    2.20
  -2  12   3  200.68   17.10
   2  12  -3  210.48   27.70
   2  12  -3  206.48   17.50
   2  12   3  185.68   17.50
   2  12   3  237.08   17.70
  -2  12  -3  211.88   25.90
  -3  12   3    1.90    1.90
   3  12  -3    4.50    2.40
   3  12   3    4.70    2.20
   3  12   3    3.40    2.20
   0  13   3  134.99   12.30
   0  13  -3  138.49   12.00
  -1  13   3    1.80    2.30
   1  13  -3    1.40    2.00
  -1  13  -3    0.50    2.10
   1  13   3   -0.30    2.20
   0   0   4  939.11   66.29
   0   0  -4  862.01   66.19
  -1   0   4  127.49    9.10
   1   0  -4  109.19    9.20
   1   0   4  119.89    9.10
  -1   0  -4  111.39    9.00
  -2   0   4  760.12   56.09
  -2   0  -4  697.93   56.19
   2   0   4  791.82   56.29
   2   0   4  817.62   56.19
   2   0  -4  759.82   56.09
  -2   0  -4  741.93   56.09
   3   0  -4 1127.69   82.79
  -3   0  -4 1131.29   82.79
  -3   0  -4 1066.49   83.09
   3   0   4 1175.58   82.79
   4   0   4 1678.43  116.59
   4   0  -4 1485.75  116.59
  -4   0  -4 1597.54  116.69
   5   0   4   96.79    7.90
  -5   0  -4   95.09    8.00
   5   0   4   92.39    8.10
   6   0   4 2207.78  164.48
   6   0   4 2269.47  164.88
   7   0  -4    9.70    2.40
   7   0   4    8.60    1.90
   7   0   4   10.50    2.40
   8   0   4   47.00    5.10
   8   0  -4   53.69    5.80
   0   1   4    0.80    0.60
   0  -1  -4    0.30    0.40
   0   1  -4    0.80    0.50
   0   1   4   -0.20    0.50
   0  -1  -4    0.40    0.60
   0   1  -4    0.60    0.50
   0  -1   4   -0.10    0.50
  -1  -1  -4  139.89   10.20
   1  -1   4  110.69   10.00
  -1   1   4  116.99    9.90
  -1  -1   4  123.99   10.10
  -1   1  -4  142.59   10.00
   1  -1  -4  140.49   10.20
   1   1   4  146.09   10.20
   2   1  -4 2269.27  165.98
  -2   1   4 2231.98  165.78
   2  -1   4 2053.49  165.88
  -2  -1  -4 2453.35  166.08
   2  -1  -4 2138.39  165.68
   2  -1  -4 2519.15  166.28
  -2   1  -4 2398.16  165.78
   2   1   4 2070.89  166.08
   3   1  -4   37.60    3.80
  -3  -1  -4   46.80    3.80
   3  -1  -4   35.30    3.40
  -4  -1  -4 2419.16  176.28
   4  -1   4 2489.95  175.88
   4  -1   4 2402.46  176.18
   4   1  -4 2281.57  176.18
   4   1   4 2358.16  176.48
   4  -1  -4 2453.85  175.98
  -4   1  -4 2427.26  176.38
   4   1   4 2341.97  176.18
  -4   1  -4 2445.56  175.98
   5  -1   4    3.60    1.40
   5  -1   4    7.90    1.40
   5   1   4    6.20    1.50
   5   1   4    3.30    1.40
   5  -1  -4    8.00    1.50
   6  -1   4  111.69    8.20
   6   1  -4   85.69    8.80
   6   1   4   94.29    8.50
   7   1  -4   20.40    3.40
   7  -1   4   16.90    2.20
   7  -1   4   16.50    2.90
   7   1   4   19.40    3.40
   7   1   4   15.40    2.70
   7  -1  -4   17.40    3.10
   8   1  -4  722.83   52.59
   8  -1   4  653.53   51.29
   8  -1   4  662.33   51.79
   8   1   4  730.73   51.99
   8  -1  -4  652.13   51.59
   8   1   4  676.23   52.19
   8  -1  -4  715.33   52.29
   0  -2  -4 4711.63  313.47
   0   2  -4 3968.40  313.27
   0  -2  -4 4183.18  313.27
   1   2  -4    7.60    1.20
  -1   2   4    7.90    1.10
  -1  -2  -4    7.60    1.40
   1  -2   4    8.30    1.30
  -1   2   4    8.90    1.50
  -1  -2  -4    6.70    1.30
  -1  -2   4   10.00    1.60
   1   2   4   10.20    1.50
  -1   2  -4    8.90    1.20
  -1   2  -4    9.70    1.10
   1  -2  -4    7.50    1.30
   1  -2  -4    7.20    1.10
   1   2   4   10.50    1.50
  -2  -2  -4  976.40   69.49
  -2  -2  -4  894.81   69.09
   2  -2   4  956.40   68.59
   2  -2   4  941.91   68.89
  -2   2   4  944.91   68.69
  -2   2  -4  923.81   68.59
   2   2   4  952.90   69.09
   2  -2  -4  917.51   68.59
   2  -2  -4  886.31   68.99
  -2   2  -4  896.71   68.89
   2   2   4 1010.90   69.19
  -3  -2  -4    5.00    1.50
  -3  -2  -4   11.80    1.80
   3  -2   4    8.40    1.40
   3   2  -4    7.70    1.60
  -3   2  -4    5.30    1.30
   3   2   4    6.40    1.40
   3  -2  -4    9.50    1.60
   3   2   4    7.90    1.70
   3  -2  -4    7.00    1.10
   4  -2   4  729.83   57.09
   4  -2  -4  782.12   56.79
   4   2   4  803.72   57.39
   5  -2   4   12.60    1.50
   5   2  -4   13.80    3.50
   5  -2   4   10.10    2.00
   5   2   4    9.90    2.40
   5   2   4   10.30    2.00
   5  -2  -4   15.00    2.90
   5  -2  -4   13.10    1.70
   6   2  -4 1248.88   95.09
   6  -2   4 1375.96   93.99
   6  -2   4 1210.18   94.29
  -6  -2  -4 1366.06   96.79
   6   2  -4 1335.07   95.49
   6   2   4 1120.19   94.49
   6   2   4 1334.17   95.09
   6  -2  -4 1232.58   93.89
   7  -2   4   31.40    3.70
  -7  -2  -4   34.10    5.30
   7   2  -4   38.20    4.50
   7  -2   4   29.10    3.20
   7   2   4   31.20    3.80
   7   2   4   42.60    4.60
   7  -2  -4   28.70    3.50
   8  -2   4   26.30    3.20
   8   2  -4   33.80    5.10
   8   2   4   27.50    3.70
   8  -2  -4   26.60    3.70
   0   3   4    2.10    0.90
   0   3   4    2.40    0.90
   0  -3  -4    1.60    0.70
   0  -3  -4    1.20    0.60
   0   3  -4    1.60    0.80
   0  -3   4    1.10    0.90
  -1  -3  -4  526.15   39.00
   1  -3   4  532.85   38.80
  -1   3   4  525.75   38.60
  -1   3  -4  491.45   38.70
  -1  -3   4  568.94   39.10
   1  -3  -4  493.75   38.60
   1   3   4  529.75   39.00
   2  -3   4 1876.01  141.79
   2   3  -4 1952.60  142.09
  -2  -3  -4 1780.12  142.19
  -2   3   4 1925.81  141.49
  -2  -3  -4 2131.39  142.29
   2   3   4 1895.01  142.19
   2  -3  -4 2164.68  142.09
  -2   3  -4 1763.82  141.79
   3  -3   4   30.00    2.80
   3  -3  -4   29.20    3.00
  -3   3  -4   31.20    2.90
   3   3   4   25.30    4.10
   3   3   4   30.90    3.40
   4   3  -4 1035.70   83.19
   4  -3   4 1223.98   82.49
  -4   3  -4 1210.78   82.69
   4   3   4 1017.20   82.79
   4  -3  -4 1118.29   82.69
   4   3   4 1104.49   83.09
   5  -3   4    3.80    1.00
   5   3  -4    3.90    1.60
   5   3  -4    4.90    2.60
   5   3   4    3.50    1.50
   5  -3  -4    4.80    0.90
   5   3   4    3.10    1.60
   5  -3  -4    2.70    1.70
   6  -3   4   21.40    2.40
  -6  -3  -4    8.90    3.80
   6   3  -4   12.70    3.40
   6  -3  -4   15.10    2.20
  -6   3  -4   10.40    3.10
   6   3   4   12.60    3.00
   7   3  -4    1.40    1.30
   7  -3   4    2.40    1.30
  -7  -3  -4    2.00    2.30
   7   3   4    3.70    1.90
   7   3   4    2.30    1.20
   7  -3  -4    1.90    1.00
   8  -3   4  834.32   63.79
   8   3  -4  906.11   66.59
   8   3   4  958.90   65.99
   8   3   4  865.01   64.59
   8  -3  -4  818.32   64.19
   8  -3  -4  780.52   63.39
   0  -4  -4 7453.15  540.75
   0  -4  -4 7346.27  540.55
  -1  -4  -4   10.80    1.80
   1  -4   4   14.00    1.90
   1   4  -4   11.10    1.80
  -1   4   4   13.70    1.50
  -1   4   4   12.00    2.00
   1   4   4   14.50    1.90
   1  -4  -4   14.70    1.50
   1  -4  -4   11.70    1.80
   1   4   4   10.40    1.80
  -2   4   4  525.45   38.10
   2  -4   4  511.85   37.70
   2   4   4  480.55   38.10
   2   4   4  524.15   38.20
  -2   4  -4  506.35   37.70
   2  -4  -4  502.95   37.90
   3  -4   4    2.60    0.90
   3   4  -4    1.70    1.00
   3   4   4    0.40    0.90
   3  -4  -4    4.50    1.10
  -3   4  -4    2.10    0.80
   3   4   4    1.90    1.00
   4  -4   4  394.86   27.70
   4   4  -4  363.86   31.80
   4   4  -4  374.36   28.80
  -4   4  -4  354.06   27.90
   4   4   4  384.36   28.50
   4  -4  -4  340.97   30.50
   5   4  -4   28.60    3.70
  -5  -4  -4   37.70    7.20
   5  -4   4   27.60    3.00
   5   4  -4   40.60    7.20
   5   4   4   36.30    4.10
  -5   4  -4   27.60    3.20
   5  -4  -4   33.60    5.80
   5   4   4   24.30    3.40
   6  -4   4  515.35   40.80
   6   4  -4  581.54   44.30
  -6  -4  -4  540.55   44.70
   6   4  -4  544.35   42.20
  -6   4  -4  566.44   43.90
   6   4   4  543.95   41.70
   7   4  -4   48.60    5.50
  -7  -4  -4   48.30   12.00
   7  -4   4   35.00    4.10
   7   4   4   43.90    5.50
   7   4   4   48.50    5.10
   8   4  -4   43.50    6.00
   8  -4  -4   51.19    5.30
   8   4   4   45.80    5.70
   0  -5   4    0.40    1.00
   0  -5  -4    0.20    0.70
   0   5  -4    0.40    0.80
   0   5  -4    0.30    0.60
   0   5   4    1.40    0.90
   0   5   4    0.40    0.80
  -1   5   4   84.19    6.70
   1  -5   4   76.19    6.50
  -1   5   4   76.59    6.20
   1   5  -4   78.19    6.70
  -1   5  -4   76.49    6.20
   1   5   4   74.09    6.60
  -1   5  -4   72.49    6.40
   1   5   4   82.09    6.80
   1  -5  -4   81.99    6.60
  -2   5   4 1965.30  131.69
   2  -5   4 1821.32  131.29
   2   5  -4 1741.53  131.79
   2  -5  -4 1890.11  131.49
   2   5   4 1695.13  131.69
   2   5   4 1735.23  131.79
   2  -5  -4 1659.03  135.19
   3   5  -4   46.40    8.90
   3   5  -4   45.50    4.80
   3  -5   4   45.60    4.10
  -3   5   4   51.49    4.80
   3  -5  -4   49.50    4.30
   3   5   4   47.90    4.90
   3   5   4   42.60    4.60
   3  -5  -4   49.99    8.40
   4   5  -4  735.63   55.79
  -4  -5  -4  745.93   55.99
   4  -5   4  661.03   50.29
   4   5  -4  620.74   51.39
  -4   5  -4  663.83   50.49
   4  -5  -4  714.63   54.59
   4   5   4  673.13   51.39
   5   5  -4    1.80    2.90
  -5  -5  -4    2.90    2.90
   5  -5   4    4.00    1.10
   5   5  -4    3.50    1.50
   5   5   4    5.90    1.90
   5   5   4    4.20    1.60
  -5   5  -4    3.10    2.70
  -5   5  -4    3.80    1.10
   5  -5  -4    6.10    3.20
   6  -5   4   26.10    2.70
  -6   5  -4   11.70    5.30
   6   5   4   20.30    4.10
   7  -5   4   -0.60    1.00
   7   5  -4    2.50    2.20
   7   5   4    0.20    1.40
   8   5  -4  478.75   38.50
   8  -5  -4  455.45   37.20
   8   5   4  504.25   38.20
   8   5   4  516.65   38.70
   0   6   4  603.84   46.50
   0  -6  -4  678.53   54.69
   0   6  -4  611.34   46.30
   1   6  -4   21.50    2.60
  -1  -6  -4   16.80    5.00
  -1   6   4   21.80    2.20
   1  -6   4   18.60    2.60
  -1   6   4   20.10    2.60
   1   6   4   20.60    2.70
  -1   6  -4   15.40    2.30
   1  -6  -4   29.00    6.10
   1   6   4   23.60    2.70
  -1   6  -4   23.20    2.20
   2   6  -4  402.76   37.30
   2  -6   4  463.15   31.90
   2   6  -4  391.86   32.50
  -2   6   4  420.66   32.20
  -2  -6  -4  497.05   38.50
  -2   6  -4  448.66   31.80
   2  -6  -4  384.66   32.20
   2   6   4  372.96   32.30
   2   6   4  443.16   32.50
   2  -6  -4  476.85   37.40
  -3   6   4   56.49    5.50
   3   6  -4   58.49    5.80
   3   6  -4   41.80    8.20
   3  -6   4   65.99    5.20
  -3   6  -4   57.29    5.10
   3   6   4   58.39    5.90
  -3   6  -4   66.09    9.60
   3  -6  -4   66.29    9.10
  -4  -6  -4  299.47   29.20
   4  -6   4  332.67   24.10
   4   6  -4  340.07   29.90
   4   6  -4  357.36   25.50
  -4   6  -4  282.97   24.10
   4  -6  -4  275.77   28.10
  -4   6  -4  316.37   29.30
   4   6   4  357.16   25.20
   4   6   4  312.37   25.20
   5  -6   4   13.60    1.80
  -5  -6  -4    9.00    4.50
   5   6  -4    8.50    2.30
  -5   6  -4    8.20    4.10
   5   6   4   14.30    2.90
   5   6   4    9.70    3.00
  -5   6  -4    9.30    1.80
   6   6  -4 1262.67   98.89
   6   6  -4 1220.18   95.09
  -6  -6  -4 1318.37   99.99
   6   6   4 1323.07   95.29
  -6   6  -4 1295.17   98.29
   6   6   4 1212.08   94.79
   7  -6   4    4.50    1.40
   7   6   4    4.50    2.60
   7   6   4    6.30    2.50
   0  -7  -4   -1.20    3.10
   0   7   4    0.10    1.10
   0   7   4    0.00    0.90
   0   7  -4   -7.30    4.10
   0   7  -4    0.00    0.80
   1   7  -4    2.00    1.10
  -1   7   4    0.80    0.90
   1   7  -4    2.90    3.90
  -1   7   4   -0.70    1.00
  -1  -7  -4    1.70    2.80
  -1   7  -4    2.30    0.90
   1   7   4    3.60    1.40
   1  -7  -4    2.80    3.20
  -1   7  -4    7.00    3.00
   2  -7   4  817.42   54.99
   2   7  -4  704.33   55.49
   2   7  -4  631.04   60.89
  -2   7   4  740.33   55.19
  -2  -7  -4  769.12   61.69
   2  -7  -4  734.13   60.69
   2   7   4  734.83   55.49
  -2   7  -4  841.52   62.29
  -2   7  -4  726.83   54.79
   2   7   4  707.73   55.39
  -3   7   4   34.90    4.10
   3   7  -4   40.10    4.40
  -3  -7  -4   41.80    9.50
   3  -7   4   39.60    3.80
  -3   7  -4   32.60    8.00
   3   7   4   34.80    4.20
   3   7   4   40.90    4.50
  -3   7  -4   33.20    3.50
   3  -7  -4   27.30    6.80
   4  -7   4  684.23   51.29
   4   7  -4  794.72   58.89
   4   7  -4  660.03   52.59
  -4  -7  -4  744.13   63.79
   4  -7  -4  755.32   57.79
   4   7   4  633.84   52.29
   4   7   4  725.13   52.69
  -4   7  -4  637.04   51.29
   5   7  -4    4.00    1.50
  -5  -7  -4    1.50    4.40
   5  -7   4    0.20    1.10
   5   7  -4    0.50    4.30
  -5   7  -4    0.30    1.00
   5   7   4    1.70    1.30
  -5   7  -4    2.20    3.50
   5   7   4    1.20    1.40
   7   7  -4    6.50    2.40
   7   7   4    3.30    2.20
   7   7   4    5.60    2.40
   0   8  -4  881.41   67.59
   0  -8  -4  804.72   66.39
   0   8  -4  772.92   59.49
   0   8   4  748.23   60.89
   0   8   4  821.22   59.49
  -1   8   4    2.10    0.90
   1   8  -4    2.60    4.10
  -1  -8  -4    1.50    3.80
  -1   8   4    0.40    1.20
   1   8  -4    2.10    1.10
  -1   8  -4    2.10    1.00
   1  -8  -4    1.10    3.60
  -1   8  -4    4.70    4.20
   1   8   4    1.80    1.30
   1   8   4    1.40    1.60
   2   8  -4   83.69    8.40
  -2  -8  -4  121.19   15.30
  -2   8   4   88.29    8.10
   2   8  -4  102.39   14.30
   2   8   4  105.89    8.70
   2   8   4   83.29    8.40
   2  -8  -4  105.19   14.10
  -2   8  -4  111.69   14.60
  -3   8   4   22.80    3.40
   3   8  -4   34.90    4.20
   3   8  -4   18.00    6.90
  -3   8  -4   28.40    7.30
  -3   8  -4   28.80    3.10
   3   8   4   38.90    4.30
   3  -8  -4   32.10    8.20
   3   8   4   37.50    4.20
   4   8  -4  321.17   24.20
  -4  -8  -4  284.07   30.00
   4  -8   4  328.77   22.80
   4   8  -4  268.47   29.40
  -4   8  -4  260.77   22.60
  -4   8  -4  297.27   29.20
   4   8   4  325.17   24.10
   4   8   4  294.07   24.10
   5   8  -4   22.10    4.10
   5   8  -4   14.80    6.50
   5  -8   4   21.30    2.70
  -5  -8  -4   13.90    6.40
   5   8   4   22.20    4.20
  -5   8  -4   24.30    7.20
   5   8   4   20.10    3.90
   6   8  -4  447.06   36.70
  -6  -8  -4  506.55   53.49
   6   8   4  510.15   37.00
   6   8   4  428.06   36.60
   0   9   4   -0.90    1.20
   0   9  -4   -2.50    5.00
   0   9  -4   -1.90    1.20
   0   9   4   -0.50    1.30
   0  -9  -4   -5.00    3.60
  -1   9   4    6.10    2.00
   1   9  -4   13.30    6.70
  -1   9   4   10.10    1.80
  -1  -9  -4    1.90    4.70
   1   9  -4    7.30    2.00
  -1   9  -4   10.10    1.80
   1   9   4   12.20    3.90
  -1   9  -4    5.40    5.40
   1   9   4    6.90    2.30
   1  -9  -4   -0.20    3.60
   2   9  -4  312.77   25.90
   2   9  -4  345.27   33.20
  -2  -9  -4  300.87   32.70
  -2   9  -4  343.97   33.00
   2   9   4  340.37   26.10
   2   9   4  332.27   25.90
   2  -9  -4  341.77   32.90
  -3   9   4   11.50    2.60
  -3  -9  -4    9.70    6.30
   3   9  -4   13.30    3.00
   3   9  -4   19.90    7.50
  -3   9  -4    7.60    4.50
   3   9   4   13.40    3.00
   3   9   4   10.80    2.70
  -4   9   4  375.26   32.50
   4   9  -4  432.16   33.50
   4   9  -4  431.46   40.30
  -4  -9  -4  464.45   41.60
   4   9   4  483.05   33.70
   4   9   4  400.86   33.10
   4  -9  -4  464.95   40.30
  -4   9  -4  452.95   40.10
  -4   9  -4  390.86   31.80
  -5  -9  -4    0.60    5.60
   5   9  -4    1.80    4.50
   5   9  -4    1.90    1.90
   5   9   4    1.90    1.80
   5   9   4   -0.60    1.60
   6   9  -4    9.90    3.20
   6   9   4   14.00    3.10
   0  10  -4  496.25   40.30
   0  10  -4  581.64   49.80
   0  10   4  538.45   40.20
   0  10   4  530.85   40.80
   0 -10  -4  560.34   49.50
   1  10  -4   14.90    7.00
  -1 -10  -4   -0.50    5.10
   1  10  -4    2.80    1.60
  -1  10   4    6.00    1.60
  -1  10   4    4.10    1.90
  -1  10  -4    5.20    1.70
  -1  10  -4    6.40    6.10
   1 -10  -4    5.80    6.00
   1  10   4    4.10    1.90
   1  10   4    3.40    2.00
   2  10  -4  128.99   18.60
  -2 -10  -4  131.59   19.30
  -2  10   4  105.09    9.90
   2  10  -4  106.09   10.20
   2  10   4  114.09   10.40
   2 -10  -4  119.39   17.50
  -2  10  -4  142.79   18.50
   3  10  -4   15.80    8.60
   3  10  -4   14.60    3.10
  -3  10   4   14.00    2.80
  -3 -10  -4    8.30    7.40
   3 -10  -4    4.20    5.40
  -3  10  -4   19.50    7.10
   3  10   4    9.70    2.70
   3  10   4   11.90    3.10
   4  10  -4   83.69    9.80
  -4 -10  -4   72.69   16.30
   4  10  -4   85.19   16.70
  -4  10   4   83.29    8.00
   4  10   4   88.89    8.80
   4  10   4   79.59    8.40
   5  10  -4    5.30    2.40
   5  10   4    1.70    1.80
   5  10   4    1.50    2.00
   0  11  -4   -0.90    6.10
   0 -11  -4    0.60    5.50
   0  11  -4   -4.30    1.40
   0  11   4   -0.20    1.90
  -1 -11  -4   13.00    7.70
   1  11  -4    7.20    2.20
  -1  11   4    7.00    1.60
   1  11  -4    9.80    7.90
  -1  11   4    5.90    2.30
   1  11   4    7.10    2.60
  -1  11  -4    9.00    2.00
  -1  11  -4   20.10    7.50
   1 -11  -4    9.50    6.90
   1  11   4    8.70    2.30
   2  11  -4  318.57   25.10
  -2 -11  -4  341.87   35.60
  -2  11   4  287.27   24.60
   2  11  -4  373.26   35.60
   2 -11  -4  290.47   33.20
   2  11   4  292.57   25.10
   2  11   4  336.37   25.20
  -3 -11  -4    6.30    8.40
  -3  11   4    7.90    2.60
   3  11  -4    3.50    2.20
   3  11  -4    1.70    7.20
   3  11   4    6.30    2.40
   3  11   4    4.30    2.20
  -3  11  -4   -0.30    6.70
  -4  11   4   76.39    8.50
   4  11  -4   85.59    9.00
   4  11  -4  106.29   18.70
   4  11   4   93.19    9.40
   4  11   4  112.79    9.90
   0  12  -4  251.57   33.50
   0  12   4  239.58   18.00
   0 -12  -4  260.07   28.90
   0  12   4  203.88   18.40
   0  12  -4  209.88   18.00
  -1 -12  -4   -8.20    5.90
  -1  12   4    2.90    2.10
   1  12  -4    0.20    8.00
   1  12  -4    2.80    1.90
  -1  12   4   -0.40    1.50
  -1  12  -4   -5.50   14.90
   1  12   4    2.30    2.00
   1  12   4    1.60    1.80
  -1  12  -4    0.80    2.10
  -2  12   4   40.00    5.40
   2  12  -4   22.90   15.70
   2  12  -4   40.50    5.70
  -2 -12  -4   53.39   16.40
   2  12   4   45.40    5.90
   2  12   4   57.19    6.10
  -2  12  -4   49.10   13.90
   3  12  -4    1.30    1.80
   3  12  -4   -3.70    8.10
  -3  12   4    2.20    2.50
   3  12   4    4.40    2.60
   3  12   4    3.90    2.50
   0   0   5    2.20    0.70
   0   0   5    4.70    1.10
   0   0  -5    1.70    0.70
   0   0  -5    2.10    0.70
  -1   0   5  153.78   12.30
   1   0  -5  185.88   12.70
  -1   0  -5  167.98   12.40
   1   0   5  149.29   12.40
   1   0  -5  153.88   12.50
   2   0   5 3328.27  254.27
  -2   0  -5 3506.75  254.17
   2   0  -5 3250.57  254.07
   2   0   5 3863.21  254.27
  -2   0   5 3427.76  254.17
  -3   0  -5  134.09   11.70
   3   0   5  156.68   11.50
   3   0   5  143.59   11.70
  -3   0  -5  151.68   11.60
   3   0  -5  152.18   11.70
  -4   0  -5 2200.08  159.18
   4   0   5 2197.18  157.98
   4   0   5 2052.39  158.28
   4   0  -5 2167.18  157.98
  -5   0  -5   31.80    3.20
   5   0   5   29.00    3.10
   6   0   5  124.09   10.60
   7   0   5    3.20    1.60
   7   0   5    1.10    1.00
   8   0   5  538.35   41.30
   8   0   5  549.45   41.80
   8   0  -5  550.14   42.20
   0  -1  -5 1010.10   75.59
   0   1   5 1103.49   75.69
   0  -1  -5  997.90   75.49
   0   1  -5  991.80   75.49
   0   1   5 1021.20   75.49
   0  -1   5  980.50   75.49
   0   1  -5 1084.79   75.59
   1  -1   5   15.00    1.70
  -1   1   5   14.50    1.70
  -1  -1  -5   11.20    1.60
   1   1  -5   13.80    1.70
  -1  -1   5   16.40    1.80
   1   1   5   12.90    1.80
   1  -1  -5   12.80    1.50
  -1   1  -5   12.90    1.60
   2  -1   5  874.01   59.49
  -2  -1  -5  780.92   59.59
   2  -1   5  794.12   59.59
  -2   1   5  810.22   59.39
  -2  -1  -5  721.03   59.69
   2   1  -5  804.02   59.69
   2   1   5  825.82   59.69
  -2   1  -5  792.92   59.39
  -2  -1   5  818.72   59.69
   2  -1  -5  778.82   59.29
   2  -1  -5  820.12   59.79
   2   1   5  862.41   59.69
  -3  -1  -5  169.18   13.80
   3  -1   5  196.28   13.90
   3  -1   5  176.38   13.50
   3   1  -5  177.88   13.70
  -3   1  -5  169.48   13.80
   3   1   5  167.68   13.70
   3   1   5  196.28   14.10
  -3   1  -5  174.08   13.50
   3  -1  -5  159.28   14.00
   3  -1  -5  185.88   13.50
  -4  -1  -5 1299.37  100.09
   4  -1   5 1443.46   99.79
  -4   1  -5 1363.46   99.79
   4   1   5 1322.67   99.99
   5  -1   5   65.89    5.10
   5  -1   5   54.39    5.40
  -5   1  -5   57.39    5.50
   5  -1  -5   58.59    5.10
   5   1   5   55.59    5.30
   5   1   5   53.19    5.80
   6  -1   5 1888.41  128.59
   6  -1   5 1705.83  128.99
   6   1   5 1584.34  128.79
   6   1   5 1815.72  129.39
   7  -1   5   36.90    3.80
   7   1  -5   39.80    4.80
  -7  -1  -5   43.10    5.70
   7  -1   5   38.10    4.30
   7   1   5   42.30    4.80
   7   1   5   34.90    4.00
   8  -1   5   32.50    3.80
   8   1  -5   35.10    4.90
   8  -1  -5   34.60    4.50
   8   1   5   38.60    4.30
   0  -2  -5    1.40    0.60
   0   2   5    0.40    0.70
   0   2  -5    1.00    0.50
   0   2  -5    2.00    0.90
   0  -2   5    1.70    0.80
   0   2   5    0.40    0.70
   0  -2  -5    1.80    0.70
  -1   2   5  229.28   17.60
  -1  -2  -5  235.28   17.80
   1  -2   5  231.88   17.70
  -1  -2  -5  204.58   17.70
  -1   2  -5  264.67   17.60
   1  -2  -5  255.27   18.00
  -1  -2   5  240.58   17.80
   1   2   5  260.97   17.90
   1  -2  -5  221.18   17.50
  -1   2  -5  216.08   17.70
   1   2   5  214.88   17.70
   2  -2   5 4953.60  327.47
  -2  -2  -5 4185.48  327.87
   2  -2   5 4196.18  327.57
   2   2  -5 4371.56  327.67
  -2  -2  -5 4668.83  327.87
   2  -2  -5 4163.18  327.27
   2   2   5 4821.52  327.97
   2   2   5 4293.07  327.77
  -2   2  -5 4529.65  327.37
   2  -2  -5 4613.64  327.77
  -2  -2   5 4491.75  327.77
  -3  -2  -5   73.99    6.40
   3  -2   5   83.59    5.90
   3  -2   5   69.39    6.20
  -3   2  -5   61.29    6.20
   3   2   5   67.69    6.40
   3  -2  -5   76.39    6.40
   3   2   5   80.59    6.40
   3  -2  -5   70.69    5.80
  -3   2  -5   79.29    5.90
   4  -2   5  729.13   56.39
   4  -2   5  844.62   55.99
   4   2   5  699.13   56.49
   4  -2  -5  780.02   55.99
  -4   2  -5  796.82   56.09
   4   2   5  702.73   56.69
   5  -2   5    3.20    1.40
   5   2   5    2.80    1.20
   5   2   5    3.30    1.40
   6  -2   5   49.20    5.30
   6   2   5   48.40    5.40
   7  -2   5    2.00    1.10
  -7  -2  -5   -2.70    2.00
   7  -2   5    1.20    0.90
   7   2  -5    2.30    1.30
   7  -2  -5    0.00    0.90
   7   2   5    1.60    1.00
   7   2   5    0.80    1.30
   8  -2   5  535.75   41.30
   8   2  -5  596.04   45.70
   8  -2   5  549.54   40.70
   8  -2  -5  563.74   42.00
   8  -2  -5  465.75   42.50
   8   2   5  563.94   41.70
   0   3  -5 6322.87  486.85
   0  -3  -5 6599.34  486.95
   0   3   5 7303.97  487.15
   0  -3  -5 6428.36  486.85
  -1   3   5   39.60    3.80
  -1   3   5   31.90    3.30
  -1  -3  -5   36.70    3.60
   1  -3  -5   32.40    3.20
   1   3   5   42.30    3.80
   1  -3  -5   36.50    3.50
   1   3   5   40.40    3.70
  -1   3  -5   42.70    3.40
  -1  -3   5   37.60    3.70
  -2  -3  -5  738.03   56.19
   2   3  -5  783.02   56.19
  -2   3   5  790.42   56.39
  -2   3   5  774.82   55.59
   2  -3   5  744.83   55.89
  -2  -3  -5  773.22   56.39
  -2   3  -5  733.83   55.89
   2   3   5  755.42   56.19
   2  -3  -5  721.83   55.59
   2  -3  -5  744.23   56.09
   2   3   5  768.92   56.29
   3  -3   5    2.00    0.70
   3   3   5    1.50    1.00
   3   3   5    2.80    1.00
  -3   3  -5    2.60    0.90
   3  -3  -5    1.30    0.60
   3  -3  -5    2.20    0.90
   4  -3   5  358.16   27.20
   4   3   5  376.46   27.70
   4  -3  -5  352.66   26.80
   5   3  -5    6.30    1.80
   5  -3  -5    5.20    1.00
   5   3   5    5.80    1.70
   5   3   5    5.20    1.80
   6   3  -5  663.23   48.30
  -6  -3  -5  610.64   50.49
   6   3  -5  612.24   49.70
   6  -3  -5  608.34   48.30
   6  -3  -5  662.43   46.60
   6   3   5  657.73   48.00
   6   3   5  583.74   47.40
   7   3  -5   15.10    3.40
   7  -3   5   15.20    2.60
   7  -3  -5   13.30    1.90
  -7   3  -5   10.30    3.00
   7   3   5   10.50    2.40
   7  -3  -5   14.70    2.20
   7   3   5   16.30    3.30
   8   3  -5   42.60    5.80
   8   3   5   51.09    5.50
   0  -4   5    1.60    1.10
   0   4  -5    3.10    1.00
   0  -4  -5    0.20    0.70
   0   4   5    1.00    1.00
   0  -4  -5    1.60    0.80
   0   4   5    3.00    1.00
  -1   4   5   11.30    1.90
  -1  -4  -5    8.80    1.80
  -1  -4  -5    8.00    1.70
   1   4  -5    7.80    1.50
   1  -4   5    7.60    1.70
  -1   4   5   11.30    1.30
   1   4   5    8.90    1.70
   1  -4  -5    8.90    1.60
  -1   4  -5    6.80    1.40
  -1  -4   5    9.90    1.90
   1   4   5    8.90    1.70
   1  -4  -5    8.80    1.40
   2  -4   5 2478.95  183.38
  -2   4   5 2550.54  183.08
   2  -4  -5 2667.73  183.68
   2   4   5 2376.36  183.78
   2   4   5 2555.84  183.88
  -2   4  -5 2395.16  183.38
   3  -4   5   35.20    3.30
  -3   4  -5   33.80    3.40
   3   4   5   31.70    3.70
   3   4   5   36.50    4.30
   4   4  -5  529.35   42.90
   4  -4   5  574.14   42.00
  -4   4  -5  564.84   42.40
   4   4   5  551.44   44.00
   4   4   5  600.34   42.90
   5   4  -5    1.20    1.30
   5   4  -5   -0.70    2.30
   5  -4   5    1.20    0.90
   5   4   5    0.60    0.70
   5  -4  -5    1.20    2.00
   5   4   5    0.00    1.00
   6   4  -5   29.10    6.10
  -6  -4  -5   28.10    6.80
   6  -4   5   40.90    3.90
   6  -4  -5   32.20    6.00
   6   4   5   38.50    5.00
   7  -4   5   24.40    3.00
   7   4  -5   27.40    4.70
  -7  -4  -5   17.10    4.80
   7   4   5   27.50    4.10
   7   4   5   28.90    4.10
  -7   4  -5   16.60    4.50
   8   4  -5  564.44   43.60
   8  -4   5  564.44   42.00
   8   4   5  534.25   43.20
   8   4   5  563.54   44.00
   0  -5   5 2166.18  163.58
   0   5   5 2160.38  163.68
   0   5  -5 2338.87  163.58
   0   5   5 2249.57  163.38
   1  -5   5    6.70    1.40
  -1   5   5    5.00    1.10
  -1   5   5    5.60    1.50
   1   5  -5    6.80    1.60
  -1   5  -5    5.70    1.10
   1  -5  -5    5.20    1.10
  -1   5  -5    4.90    1.10
   1   5   5    3.20    1.20
   1   5   5    5.90    1.50
   2   5  -5  388.16   30.10
  -2   5   5  395.66   29.90
   2  -5   5  415.06   29.50
  -2   5  -5  406.56   29.50
   2   5   5  408.06   30.00
   2   5   5  346.57   29.90
   3   5  -5   52.29    5.50
   3  -5   5   57.49    4.80
  -3   5   5   51.09    5.30
  -3   5  -5   58.89    4.90
   3   5   5   49.90    5.70
   4   5  -5  302.07   29.30
   4   5  -5  336.17   25.60
   4  -5   5  322.27   24.50
   4   5   5  339.17   25.60
   4  -5  -5  316.57   28.30
   5   5  -5   27.40    4.30
   5  -5   5   21.00    2.70
   5   5  -5   24.30    6.50
  -5  -5  -5   32.80    7.50
   5   5   5   27.10    3.40
   5   5   5   23.90    4.00
   6   5  -5  837.42   66.39
   6  -5   5  747.83   61.59
  -6  -5  -5  844.12   67.19
   6   5  -5  850.21   63.29
  -6   5  -5  840.62   66.29
   6   5   5  836.12   62.69
   6   5   5  900.01   63.29
   6  -5  -5  819.82   65.09
   7   5  -5   11.70    3.20
  -7  -5  -5   17.00    5.50
   7   5   5   13.80    3.30
   7   5   5   10.50    2.50
   8  -5   5   41.70    4.10
   8   5  -5   30.10    5.40
   8   5   5   26.10    4.70
   0   6   5    0.20    0.90
   0   6   5    0.70    0.80
   0   6  -5   -0.20    0.70
   1   6  -5   95.19    8.50
   1  -6   5   94.39    8.40
  -1   6   5   98.59    8.60
  -1   6   5  111.09    8.10
  -1   6  -5  107.09    8.20
   1   6   5   94.89    8.70
   1   6   5  102.99    8.50
   2  -6   5 1636.74  114.89
  -2   6   5 1576.74  115.19
   2   6  -5 1507.25  115.39
   2   6   5 1611.14  115.39
   2   6   5 1469.55  115.99
   3   6  -5   28.70    3.60
   3  -6   5   29.10    2.90
  -3   6   5   31.60    3.50
   3   6  -5   19.80    5.50
  -3  -6  -5   22.90    6.20
   3   6   5   25.70    3.30
   3  -6  -5   20.50    6.00
  -3   6  -5   22.00    2.80
   3   6   5   21.80    3.60
   4   6  -5  542.35   44.40
   4  -6   5  481.25   37.80
   4   6  -5  466.85   38.90
   4  -6  -5  558.34   43.30
   4   6   5  564.44   39.10
   4   6   5  469.05   38.60
   5   6  -5   18.40    3.60
   5  -6   5   16.30    2.30
   5   6  -5   29.90    7.60
  -5  -6  -5   14.40    5.70
   5   6   5   20.40    3.30
  -5   6  -5   12.60    3.80
   5   6   5   15.10    3.20
   6  -6   5   35.90    3.50
   6   6   5   27.10    4.70
  -6   6  -5   19.00    5.70
   7   6  -5   -0.50    1.50
   7  -6   5    2.50    1.40
  -7  -6  -5    5.40    5.20
   7   6   5    4.30    1.70
   7   6   5    3.60    1.80
   0  -7  -5  625.94   51.39
   0   7   5  551.14   45.30
   0   7  -5  621.34   45.10
   0   7   5  620.34   45.00
  -1   7   5    1.90    0.90
  -1  -7  -5   -0.30    2.80
   1   7  -5    1.30    1.00
   1  -7   5    0.80    1.10
  -1   7   5    0.50    1.20
   1   7   5    2.30    1.20
  -1   7  -5    2.10    1.00
   1   7   5    1.80    1.30
   1  -7  -5    3.80    3.40
   2   7  -5  129.79   16.80
  -2  -7  -5  152.08   17.50
   2  -7   5  146.59   11.20
  -2   7   5  124.19   11.30
   2   7  -5  128.79   12.40
   2  -7  -5  167.38   17.30
   2   7   5  138.09   11.70
  -3   7   5   14.70    2.60
   3   7  -5   17.70    6.30
  -3  -7  -5   13.70    5.90
   3   7  -5   14.50    2.90
   3  -7   5   15.00    2.30
   3  -7  -5   20.20    6.00
   3   7   5   13.80    2.80
   3   7   5   15.90    3.00
  -3   7  -5   12.90    5.00
   4   7  -5  376.56   36.20
   4  -7   5  390.86   29.90
   4   7  -5  435.86   31.40
  -4   7  -5  374.26   36.20
   4  -7  -5  343.27   35.20
   4   7   5  386.26   31.10
   4   7   5  449.56   31.30
   5   7  -5   45.00    9.70
   5  -7   5   34.60    3.70
   5   7  -5   38.70    4.80
  -5  -7  -5   40.90    9.50
   5   7   5   36.90    4.70
   5   7   5   46.80    5.40
  -5   7  -5   35.40    8.40
   6   7  -5  766.02   59.09
   6  -7   5  714.23   57.09
   6   7  -5  759.72   63.79
  -6  -7  -5  803.12   65.19
   6   7   5  772.62   61.79
   6   7   5  837.12   59.29
   7  -7   5   12.50    2.00
   7   7  -5   20.50    4.10
  -7  -7  -5   14.50    7.80
   7   7   5   13.50    3.20
   7   7   5   13.80    3.20
   0   8  -5   -1.30    0.80
   0  -8  -5    1.80    3.90
   0   8   5    0.60    1.30
   0   8   5    0.10    0.90
   0   8  -5    1.10    4.40
   1   8  -5    3.70    1.50
  -1   8   5    5.30    1.30
  -1  -8  -5    2.10    3.30
  -1   8   5    4.30    1.60
   1   8  -5    1.10    3.80
   1   8   5    1.90    1.30
   1   8   5    2.30    1.60
   1  -8  -5    2.40    4.00
  -1   8  -5    2.90    1.20
   2   8  -5  539.05   48.20
   2   8  -5  526.05   41.10
  -2   8   5  475.35   41.80
  -2  -8  -5  607.74   48.70
   2   8   5  543.05   41.00
  -2   8  -5  575.54   48.50
   2  -8  -5  553.64   47.30
   2   8   5  543.95   41.20
  -3   8   5   24.10    3.80
  -3  -8  -5   21.80    7.60
   3   8  -5   25.50    4.10
   3   8  -5   21.30    6.80
   3  -8   5   19.00    2.90
   3  -8  -5   16.00    5.80
  -3   8  -5   26.40    7.20
   3   8   5   22.40    3.70
   3   8   5   29.20    4.30
  -4  -8  -5  634.34   52.29
   4   8  -5  562.94   45.00
   4  -8   5  544.55   43.60
   4   8  -5  613.54   51.79
  -4   8  -5  630.54   53.09
   4   8   5  639.34   45.20
   4  -8  -5  575.74   54.79
   4   8   5  542.05   44.80
   5  -8   5    2.80    1.50
  -5  -8  -5    9.40    6.30
   5   8  -5    4.00    2.00
   5   8  -5    6.50    6.00
   5  -8  -5   12.30    7.90
   5   8   5    9.90    2.70
   5   8   5    2.00    1.70
  -5   8  -5    6.10    4.40
  -6  -8  -5   31.30   11.40
   6   8  -5   26.40    4.60
   6   8   5   28.10    4.70
   6   8   5   19.80    4.30
   0   9   5  765.52   56.29
   0   9  -5  714.13   56.39
   0   9   5  714.73   56.79
   0  -9  -5  785.82   66.59
   0   9  -5  854.51   65.79
  -1   9   5   12.80    2.70
   1   9  -5   11.40    2.30
  -1  -9  -5    8.80    4.70
   1   9  -5    2.90    4.50
  -1   9   5   13.70    2.10
   1  -9  -5   11.90    4.90
  -1   9  -5    4.20    4.30
   1   9   5   13.20    2.90
  -1   9  -5   14.10    2.30
   1   9   5   15.50    3.00
   2   9  -5  141.29   17.70
  -2  -9  -5  133.59   17.40
   2   9  -5   99.89    9.80
  -2   9   5   94.29    9.50
   2   9   5  121.69    9.90
   2   9   5  103.49    9.90
  -2   9  -5  130.49   17.20
   2  -9  -5  115.59   16.10
  -3   9   5   15.80    3.00
   3   9  -5   19.30    3.50
   3   9  -5    6.70    5.90
  -3  -9  -5   14.30    6.70
   3   9   5   16.10    3.40
   3   9   5   12.50    2.80
  -3   9  -5   17.90    7.00
  -4  -9  -5  143.79   20.00
  -4   9   5  155.38   13.40
   4   9  -5  148.09   20.00
   4   9  -5  164.28   13.90
   4   9   5  163.78   13.70
  -4   9  -5  146.39   19.10
   4  -9  -5  151.48   18.80
   4   9   5  155.38   13.90
   5   9  -5   -0.40    4.80
   5   9  -5    3.70    2.20
  -5  -9  -5    0.00    8.30
   5   9   5    1.70    1.70
   5   9   5    6.80    2.80
  -6  -9  -5  288.87   31.80
   6   9  -5  245.28   22.20
   6   9   5  284.47   22.50
   6   9   5  257.17   22.10
   0  10  -5   -1.90    4.70
   0  10   5   -3.40    1.30
   0 -10  -5   -6.10    4.50
   0  10   5    4.20    2.00
   0  10  -5   -1.40    1.50
  -1 -10  -5   17.80   10.80
  -1  10   5   17.80    2.50
   1  10  -5   11.00    2.70
   1  10  -5   17.20    7.20
  -1  10   5   25.90    3.80
  -1  10  -5   18.90    2.80
   1 -10  -5   23.20   12.00
   1  10   5   15.90    2.90
  -1  10  -5   22.70    8.40
   1  10   5   13.10    3.10
  -2  10   5  418.36   34.90
   2  10  -5  490.55   44.30
   2  10  -5  456.95   35.30
  -2 -10  -5  480.35   44.40
   2  10   5  421.76   35.20
   2  10   5  498.35   35.30
  -2  10  -5  448.16   43.20
   3  10  -5    7.80    6.30
  -3 -10  -5   11.30    7.70
   3  10  -5   11.20    2.90
  -3  10   5    4.00    1.90
   3  10   5    7.00    2.40
   3  10   5    9.90    2.70
  -3  10  -5    4.80    5.40
   3 -10  -5    9.90    6.60
   4  10  -5  115.59   11.40
  -4  10   5   89.89    9.90
   4  10  -5  133.39   18.70
  -4 -10  -5  157.78   23.40
   4  10   5  116.09   10.60
  -5 -10  -5  -10.80    8.20
   5  10  -5   -1.30    1.60
   5  10  -5   -4.60    5.80
   5  10   5   -1.50    1.60
   5  10   5   -2.20    1.80
   0  11  -5  353.16   28.30
   0 -11  -5  404.76   39.20
   0  11   5  382.86   28.10
   0  11  -5  376.66   38.20
   0  11   5  339.97   28.70
   1  11  -5    3.50    1.80
   1  11  -5    6.70    7.10
  -1  11   5    3.50    2.00
  -1  11   5    3.10    1.50
  -1 -11  -5    6.90    6.80
  -1  11  -5    6.70    2.00
  -1  11  -5   -6.70    5.80
   1  11   5    5.70    2.30
   1  11   5    4.20    2.10
   1 -11  -5    7.70    8.60
  -2  11   5   56.09    6.30
   2  11  -5   59.19    6.60
  -2 -11  -5   86.99   17.40
   2  11  -5   49.60   13.60
   2  11   5   55.99    7.30
   2 -11  -5   74.49   15.80
  -2  11  -5   77.19   16.10
   3  11  -5    5.50    2.50
  -3 -11  -5   18.90   11.60
  -3  11   5    2.40    2.30
   3  11  -5   10.10    9.10
   3  11   5    1.30    2.10
   3  11   5    2.40    2.00
   4  11  -5   33.50   12.00
   4  11  -5   59.39    6.50
  -4  11   5   40.00    5.60
  -4 -11  -5   27.30   12.90
   4  11   5   41.10    6.40
   4  11   5   54.59    6.20
   0  12  -5    0.20    2.00
   0  12   5    0.20    2.00
   0  12  -5    3.10    8.80
   0 -12  -5   -8.40    8.40
  -1  12   5    3.00    1.70
  -1 -12  -5    1.50    8.20
  -1  12   5    3.30    2.30
   1  12  -5  -10.40    7.50
   1  12   5    2.90    2.00
   1  12   5    7.00    2.70
   1 -12  -5   -1.80    6.90
  -1  12  -5   -7.50    8.80
   2  12  -5  160.48   34.80
  -2  12   5  150.28   13.60
  -2 -12  -5  145.39   25.40
   2  12  -5  153.68   13.70
   2  12   5  173.88   13.80
  -2  12  -5  202.68   34.70
   2  12   5  141.79   13.90
   0   0   6  276.47   20.20
   0   0  -6  257.87   20.30
   1   0   6    1.30    0.90
   1   0  -6    2.10    0.70
   1   0  -6    0.70    0.70
  -1   0   6    0.80    0.80
  -1   0  -6    2.00    0.80
  -1   0  -6    1.40    0.60
   1   0   6    0.50    0.70
  -2   0   6  711.93   51.89
   2   0   6  777.72   51.99
  -2   0  -6  671.33   51.79
   2   0   6  702.53   51.99
  -2   0  -6  639.14   51.99
  -3   0  -6  328.67   24.40
   3   0   6  352.76   24.40
   3   0  -6  306.67   24.20
   3   0   6  300.37   24.50
   4   0  -6  735.13   58.89
  -4   0  -6  853.51   58.99
  -5   0  -6   71.59    6.40
   5   0   6   75.29    6.20
   5   0   6   63.39    6.40
   6   0   6 2198.48  156.58
   6   0   6 2049.89  156.08
   7   0   6   53.99    5.30
   7   0   6   56.59    5.90
   8   0   6   16.50    2.80
   8   0  -6   24.10    4.30
   0   1   6    0.40    0.60
   0   1   6   -0.50    0.60
   0  -1  -6    0.60    0.80
   0   1  -6    0.80    0.70
   0  -1   6    1.50    0.80
   0   1  -6    0.50    0.70
   0  -1  -6    0.20    0.90
   1   1  -6  249.97   19.00
   1  -1   6  240.38   18.70
  -1  -1  -6  230.68   18.80
  -1   1   6  268.27   19.20
  -1   1   6  246.78   18.60
   1  -1   6  258.27   18.80
  -1  -1  -6  248.88   19.10
  -1   1  -6  239.68   18.70
   1   1   6  264.77   18.90
  -1  -1   6  248.68   18.80
   1   1   6  249.18   18.80
  -1   1  -6  237.68   18.60
   1  -1  -6  233.48   18.90
   1  -1  -6  244.08   18.60
  -2   1   6 2808.62  204.18
  -2  -1  -6 2921.61  204.48
   2  -1   6 2672.53  204.38
   2  -1  -6 2956.50  204.68
  -2   1  -6 2892.01  204.18
   2  -1  -6 2556.64  204.08
   2   1   6 2658.93  204.48
  -2  -1   6 2858.11  204.48
   3  -1   6   75.39    5.80
   3   1  -6   66.89    5.90
  -3  -1  -6   70.49    6.00
   3  -1   6   59.69    5.90
  -3   1  -6   70.79    5.80
   3   1   6   60.89    6.10
   3  -1  -6   76.39    5.90
   3   1   6   74.29    6.00
   4  -1   6 1581.74  108.79
   4  -1   6 1405.26  109.09
   4   1   6 1388.46  109.29
   4  -1  -6 1510.55  108.79
   4   1   6 1414.06  108.99
  -4   1  -6 1577.04  108.89
   5  -1   6   13.70    2.00
   5   1   6   15.30    2.80
  -5   1  -6   13.10    2.10
   6  -1   6   71.99    6.90
   6   1   6   74.19    7.10
   7  -1   6    1.00    1.10
   7  -1   6    1.90    1.50
   7   1   6    6.00    1.80
   7   1   6    1.80    1.20
   8  -1   6  544.25   41.00
   8  -1   6  531.65   41.60
   8   1   6  544.65   41.50
   8  -1  -6  560.84   42.40
   0   2   6 3600.04  234.88
   0  -2   6 3083.69  234.48
   0   2  -6 2936.61  234.48
   0   2   6 3155.08  234.48
   0  -2  -6 3252.67  234.68
  -1  -2  -6   94.19    7.40
  -1   2   6   84.99    7.10
   1  -2   6   82.59    7.20
  -1   2   6  102.79    7.70
  -1  -2   6   88.79    7.40
   1  -2  -6   82.09    7.10
   1  -2  -6   88.19    7.40
   1   2   6   94.69    7.40
  -1   2  -6   80.79    7.20
   1   2   6   98.79    7.50
  -1   2  -6   89.89    7.10
   2  -2   6  637.14   48.50
  -2  -2  -6  613.34   48.00
  -2   2   6  659.83   47.60
   2   2   6  642.04   48.00
   2  -2  -6  709.53   48.70
   2  -2  -6  642.74   47.60
  -2   2  -6  631.84   47.60
  -2   2  -6  605.14   47.90
   2   2   6  667.23   48.10
  -2  -2   6  646.64   48.00
   3  -2   6    7.70    1.50
  -3   2   6    5.70    1.20
   3  -2   6    3.60    1.10
  -3   2  -6    6.60    1.10
   3   2   6    3.60    1.30
   3  -2  -6    5.10    0.90
   3   2   6    5.60    1.30
   4  -2  -6  365.16   28.30
   4   2   6  395.36   28.90
   5  -2   6   70.79    5.30
  -5   2  -6   64.39    5.30
   5   2   6   56.79    5.70
   5   2   6   50.19    6.70
   5  -2  -6   61.79    5.30
   6  -2   6 1290.07   90.79
   6  -2   6 1204.58   91.39
   6   2   6 1336.67   92.09
   6   2   6 1106.59   91.39
   7  -2   6    3.60    1.10
   7   2  -6    2.20    1.70
   7  -2   6    3.40    1.50
   7   2  -6    5.40    2.40
   7   2   6    3.80    2.30
   7   2   6    4.00    1.40
   8   2  -6   38.10    5.50
   8   2   6   48.00    5.20
   0  -3  -6    1.40    0.70
   0   3   6    1.70    1.00
   0   3  -6    0.70    0.70
   0  -3   6    1.80    1.00
   0  -3  -6    1.80    0.80
   0   3   6    1.00    0.70
  -1  -3  -6   21.30    2.40
  -1   3   6   18.70    2.00
  -1   3   6   21.70    2.70
  -1  -3  -6   16.00    2.20
   1  -3   6   20.40    2.40
  -1   3  -6   16.80    2.20
  -1  -3   6   20.60    2.50
   1  -3  -6   16.50    2.10
   1  -3  -6   19.40    2.30
   1   3   6   24.50    2.60
   1   3   6   19.70    2.40
  -2   3   6 3648.54  249.58
   2  -3   6 3289.67  248.98
  -2   3   6 3468.15  248.68
  -2  -3   6 3412.16  249.28
  -2   3  -6 3567.04  248.68
   2  -3  -6 3234.48  248.68
   2   3   6 3336.07  249.28
   2   3   6 3510.85  249.38
  -2   3  -6 3151.08  248.98
   3  -3   6   67.29    5.90
  -3   3   6   75.59    5.70
   3   3   6   68.19    6.20
   3  -3  -6   67.99    5.50
   3   3   6   66.19    6.30
   4  -3   6  467.45   34.40
   4   3   6  422.56   34.60
   4   3   6  468.25   34.90
   4  -3  -6  469.05   33.80
   5  -3   6    3.70    1.20
   5   3   6   10.70    2.40
   5  -3  -6    7.20    1.20
   5   3   6    6.40    1.70
   6  -3   6   38.90    3.80
   6   3  -6   28.50    6.40
   6   3   6   39.50    4.50
   6  -3  -6   25.60    3.60
   7   3  -6   51.29    5.60
   7  -3   6   36.30    4.30
  -7  -3  -6   45.20    8.00
   7   3  -6   37.70    6.60
   7   3   6   47.60    4.80
   7   3   6   40.60    5.10
   7  -3  -6   35.80    4.00
   8   3  -6  527.25   40.10
  -8  -3  -6  476.35   41.10
   8  -3   6  500.95   38.60
   8   3   6  499.85   39.50
   8   3   6  528.05   39.20
   0  -4   6 2463.55  188.38
   0   4   6 2627.64  188.68
   0  -4  -6 2546.85  188.48
   0   4   6 2640.74  188.28
   1  -4   6  298.97   21.80
  -1  -4  -6  276.07   21.90
  -1   4   6  296.17   21.50
  -1   4   6  290.87   22.10
  -1  -4   6  293.07   22.00
  -1   4  -6  259.67   22.00
   1   4   6  292.27   21.90
   1  -4  -6  286.47   21.60
   1   4   6  283.87   22.10
   2  -4   6  599.64   43.80
  -2   4   6  607.84   43.60
  -2   4   6  547.65   44.20
   2   4   6  528.05   44.10
   2   4   6  649.24   44.30
   2  -4  -6  617.44   43.60
  -2   4  -6  574.24   43.40
   3  -4   6    1.90    1.00
   3   4   6    0.40    1.00
   3   4   6    1.80    1.10
   4  -4   6  197.68   15.90
   4   4   6  194.08   16.60
   4   4   6  227.58   16.60
   5  -4   6    5.30    1.30
   5   4  -6    8.40    2.30
   5   4   6    6.30    1.80
   5   4   6    6.10    1.90
   6   4  -6  884.71   69.99
  -6  -4  -6  881.51   70.79
   6   4  -6  912.81   67.19
   6  -4   6  817.82   65.79
   6   4   6  955.80   66.99
   6   4   6  874.21   66.49
  -7  -4  -6    1.60    3.90
   7   4  -6    0.70    3.50
   7  -4   6    0.30    1.20
   7   4   6   -0.30    1.40
  -8  -4  -6   51.19    9.00
   8  -4   6   51.79    5.40
   8   4   6   47.40    6.30
   0   5   6    1.20    0.80
   0  -5  -6    1.40    0.80
   0   5   6    1.20    1.00
   0  -5   6    0.30    0.80
   1  -5   6   49.99    4.80
  -1   5   6   47.40    5.00
   1  -5  -6   61.09    4.70
  -1  -5   6   52.89    5.20
   1   5   6   45.90    5.00
   1   5   6   57.59    5.00
   2  -5   6 1576.34  116.49
  -2   5   6 1633.34  116.99
   2   5   6 1547.45  116.79
   2   5   6 1505.75  116.89
   2  -5  -6 1655.03  116.19
  -3   5   6   61.09    5.70
   3   5  -6   55.19    5.70
   3  -5   6   55.89    5.10
   3   5   6   54.19    5.60
   3   5   6   58.89    5.70
   4   5  -6  550.64   43.50
   4  -5   6  555.34   42.40
   4   5   6  638.44   43.50
   4   5   6  536.35   43.10
   5   5  -6    4.60    1.60
   5  -5   6    4.50    1.30
   5   5  -6    2.50    3.50
   5   5   6    3.30    1.70
   5   5   6    4.60    1.60
  -6  -5  -6   17.30    6.00
   6   5  -6   20.70    6.00
   6  -5   6   36.80    3.70
   6  -5  -6   19.90    5.50
   6   5   6   27.70    4.60
   7   5  -6    9.30    3.20
   7   5  -6    3.60    4.90
   7  -5   6    5.90    1.70
   7   5   6    6.60    2.10
   0   6   6  771.22   59.59
   0  -6   6  777.12   59.39
   0   6   6  828.52   59.19
   0   6  -6  813.32   59.29
   1  -6   6    3.00    1.20
   1   6  -6    3.90    1.10
  -1   6   6    4.60    1.50
   1   6   6    3.40    1.20
  -1   6  -6    4.40    1.00
  -2   6   6  194.98   16.70
   2   6  -6  206.68   17.00
   2  -6   6  222.08   16.50
   2   6   6  196.98   16.90
   2   6   6  235.28   17.00
   3   6  -6   16.80    3.00
   3  -6   6   16.40    2.40
  -3   6   6   17.00    2.90
   3   6   6   16.80    2.90
   3   6   6   14.30    2.80
   3  -6  -6   16.30    5.70
   4   6  -6  428.46   30.80
   4   6  -6  370.46   35.60
   4  -6   6  371.86   29.40
   4  -6  -6  333.47   33.90
   4   6   6  408.16   30.60
   4   6   6  415.06   30.50
   5   6  -6  102.89   13.60
   5  -6   6   77.09    7.40
   5   6  -6   87.19    8.50
  -5  -6  -6   81.19   13.40
   5   6   6   87.09    8.40
   5   6   6  105.79    8.70
   6   6  -6  759.82   60.39
   6   6  -6  743.63   63.69
  -6  -6  -6  808.62   65.19
   6   6   6  730.13   59.19
  -6   6  -6  922.51   69.89
   6   6   6  790.52   60.59
   7   6  -6   20.50    4.20
   7  -6   6   15.70    2.60
  -7  -6  -6   16.40    7.50
   7   6  -6   21.00    6.90
   7   6   6   19.50    3.80
   7   6   6   15.20    3.50
   0   7  -6    0.10    0.90
   0   7   6   -0.50    0.90
   0   7   6    0.30    1.30
   1  -7   6   52.89    5.30
  -1   7   6   50.49    5.80
   1   7  -6   56.99    5.50
  -1   7  -6   63.29    5.10
   1   7   6   53.69    5.70
   1   7   6   57.29    5.40
   2  -7   6  614.84   45.70
  -2  -7  -6  665.93   53.09
   2   7  -6  581.34   46.30
   2   7   6  607.74   46.10
   2  -7  -6  671.03   52.59
   2   7   6  572.84   46.20
  -3   7   6   34.40    4.30
   3  -7   6   31.70    3.50
   3   7  -6   34.80    4.20
   3   7  -6   25.50    7.10
  -3  -7  -6   34.60   10.10
   3   7   6   28.10    4.00
   3  -7  -6   28.90    7.80
   3   7   6   36.60    4.30
  -4  -7  -6  766.02   61.09
   4   7  -6  671.43   53.49
   4   7  -6  753.52   60.39
   4  -7   6  618.94   52.19
   4   7   6  784.22   53.69
   4   7   6  684.23   53.29
   5   7  -6    0.90    4.40
  -5  -7  -6    4.10    4.60
   5   7  -6    1.20    1.40
  -5   7  -6   -6.90    3.20
   5   7   6    1.40    1.80
   6  -7   6   20.00    3.10
  -6  -7  -6    7.20    7.90
   6   7  -6   10.70    6.20
   6   7   6   18.70    3.90
   7   7  -6    4.80    1.90
  -7  -7  -6    4.70    7.40
   7  -7   6    1.10    1.40
   7   7   6    1.90    2.20
   7   7   6    3.40    2.00
   0   8   6  419.56   31.90
   0   8  -6  410.56   31.50
   0   8   6  410.56   31.30
   0  -8  -6  417.96   38.60
  -1   8   6   29.50    3.90
   1   8  -6   25.60    3.60
   1   8  -6   21.60    6.90
  -1  -8  -6   31.60    8.60
  -1   8   6   35.20    3.30
   1   8   6   30.10    3.60
   1  -8  -6   37.90    8.70
   1   8   6   27.70    3.90
  -1   8  -6   34.20    3.40
  -2  -8  -6  231.08   24.00
  -2   8   6  179.68   16.50
   2   8  -6  182.48   16.60
   2   8  -6  244.28   24.20
   2  -8   6  185.88   16.20
   2   8   6  200.48   16.80
   2   8   6  230.98   16.80
  -2   8  -6  259.07   24.80
   2  -8  -6  242.28   23.50
   3  -8   6   56.89    5.90
  -3  -8  -6   67.39   12.50
  -3   8   6   58.19    6.40
   3   8  -6   77.19    6.90
   3   8  -6   42.50    9.50
  -3   8  -6   62.99   11.80
   3   8   6   79.19    6.90
   3  -8  -6   63.89   11.30
   3   8   6   67.39    6.70
   4   8  -6  181.58   14.50
   4  -8   6  154.68   13.00
   4   8  -6  140.59   19.20
  -4  -8  -6  151.98   20.30
  -4   8  -6  157.58   19.80
   4   8   6  179.18   14.30
   4   8   6  164.48   14.20
   4  -8  -6  157.48   19.50
   5   8  -6    9.10    5.30
   5  -8   6    6.90    1.80
  -5  -8  -6    4.50    6.40
   5   8   6    7.30    3.70
   6  -8   6  484.25   36.60
   6   8  -6  505.35   44.50
  -6  -8  -6  568.84   47.20
   6   8  -6  463.85   38.40
   6   8   6  461.45   38.20
   0   9  -6   -1.60    1.30
   0   9   6   -2.20    1.30
   0   9  -6   -3.70    7.20
   0  -9  -6   -2.40    4.80
   0   9   6    1.00    1.60
   1   9  -6    3.60    5.40
  -1  -9  -6    5.00    5.00
  -1   9   6    7.20    1.60
  -1   9   6    5.50    2.30
   1   9  -6    6.00    2.00
   1   9   6    5.50    2.00
   1   9   6    6.10    1.90
  -1   9  -6    9.10    1.80
  -1   9  -6   12.10    6.70
   1  -9  -6    2.40    4.70
  -2   9   6  470.95   40.10
   2   9  -6  600.24   49.60
  -2  -9  -6  556.34   48.60
   2   9  -6  510.75   40.30
   2   9   6  507.25   40.50
  -2   9  -6  518.65   48.30
   2  -9  -6  557.24   48.00
   2   9   6  554.84   40.30
   3   9  -6   21.80    7.40
  -3  -9  -6    7.60    6.30
  -3   9   6   15.60    3.20
   3   9  -6   15.40    3.20
  -3   9  -6    8.50    5.70
   3   9   6   14.30    3.20
   3   9   6   21.70    3.60
   3  -9  -6   16.00    9.50
   4   9  -6  197.38   22.30
  -4  -9  -6  189.58   26.00
   4  -9   6  158.28   13.60
   4   9  -6  169.08   14.80
  -4   9   6  148.49   14.30
   4   9   6  164.88   17.20
   4  -9  -6  224.78   23.80
  -4   9  -6  194.08   21.70
   5   9  -6    3.40    2.00
   5  -9   6    2.80    1.80
   5   9  -6    1.10    5.40
   5   9   6    3.90    2.10
   5   9   6    3.60    2.30
   0  10  -6  465.95   37.90
   0  10   6  479.25   38.10
   0  10   6  528.15   37.60
   0  10  -6  510.55   47.10
   1  10  -6   14.70    2.80
  -1  10   6   14.80    2.30
  -1  10   6   10.00    3.00
   1  10  -6   17.50    9.10
  -1 -10  -6    9.20    6.20
   1  10   6   18.00    3.10
  -1  10  -6   15.90    7.30
  -1  10  -6   17.30    2.60
   1  10   6   14.70    3.30
   1 -10  -6    7.80    5.70
   2  10  -6   76.79    8.20
  -2  10   6   71.59    8.00
   2  10  -6   98.29   18.40
  -2 -10  -6   81.69   16.50
   2  10   6   92.89    8.30
  -2  10  -6  107.59   19.10
   2  10   6   81.39    8.30
  -3  10   6    1.70    2.10
   3  10  -6    2.20    6.10
  -3 -10  -6    5.60    7.30
   3  10  -6    3.70    1.70
   3 -10  -6    2.20    5.40
  -3  10  -6    1.80    5.50
   3  10   6    5.40    2.20
  -4 -10  -6   87.09   17.70
  -4  10   6   55.79    7.00
   4  10  -6   67.39    7.20
   4  10  -6   62.29   14.00
   4  10   6   58.79    7.10
   4  10   6   75.89    7.50
   5  10  -6   16.20    9.00
  -5 -10  -6    8.90   11.10
   5  10  -6    8.80    2.90
   5  10   6   13.40    3.00
   5  10   6    9.60    2.80
   0  11   6    0.60    2.00
   0  11  -6    1.70    7.10
   0 -11  -6    2.90    6.30
   0  11  -6   -1.10    1.70
   0  11   6   -1.20    1.60
  -1 -11  -6    1.50    7.10
   1  11  -6   13.40    8.20
  -1  11   6   11.10    2.80
  -1  11   6    6.90    1.70
   1  11  -6    9.30    2.20
   1  11   6    9.40    3.00
   1  11   6    8.80    2.40
  -1  11  -6    8.30    2.10
  -1  11  -6   19.90   10.10
  -2  11   6  213.48   19.20
   2  11  -6  258.07   29.10
   2  11  -6  243.98   19.40
   2  11   6  243.38   19.20
   2 -11  -6  269.67   29.80
   2  11   6  210.88   19.30
  -2  11  -6  247.88   28.50
   3  11  -6   17.50    5.50
  -3  11   6   13.30    3.30
  -3 -11  -6    7.50    9.40
   3  11  -6    7.60    8.30
   3  11   6   10.40    4.10
   3  11   6   10.10    3.10
  -4  11   6   83.49    9.30
   4  11  -6   96.99    9.80
   4  11   6  108.89   10.00
   0  12  -6  165.78   13.80
   0  12  -6  155.28   23.80
   0  12   6  176.18   13.60
   0  12   6  147.59   15.30
  -1 -12  -6   -5.80    9.30
   1  12  -6    6.20    2.70
   1  12  -6   -1.10    9.60
  -1  12   6    3.80    2.20
  -1  12   6    4.70    1.70
   1 -12  -6    9.20    9.30
  -1  12  -6   -8.10    8.00
   1  12   6    6.30    2.90
   1  12   6    6.10    2.10
  -2 -12  -6   36.40   12.40
   2  12  -6   39.80   11.60
   2  12  -6   27.20    5.00
  -2  12   6   27.50    4.70
   2  12   6   29.50    5.10
   0   0  -7    2.80    0.90
   0   0   7    3.40    1.00
   0   0   7    3.60    1.30
   1   0  -7  300.47   24.40
  -1   0   7  301.67   24.40
   1   0  -7  330.57   24.80
   1   0   7  366.36   24.80
  -1   0  -7  329.47   24.50
  -2   0   7 2021.50  142.99
   2   0   7 1848.81  143.09
  -2   0  -7 2020.40  142.99
   2   0  -7 1900.01  142.89
   3   0   7   25.90    3.00
  -3   0  -7   25.70    2.80
   3   0  -7   27.20    2.80
   3   0   7   25.50    2.70
  -3   0   7   26.30    3.10
   4   0   7 1060.59   88.09
  -4   0  -7 1218.58   87.39
   4   0   7 1259.07   87.29
   5   0   7   16.20    2.30
   5   0   7   24.50    3.20
   6   0   7   34.80    4.20
   7   0   7    4.80    2.00
   7   0   7    1.00    1.40
   8   0   7  570.04   43.20
   8   0  -7  573.04   44.60
   0   1   7 2750.82  205.98
   0  -1  -7 2960.70  206.28
   0   1  -7 2666.63  206.08
   0  -1  -7 2606.64  206.08
   0  -1   7 2767.62  206.08
   0   1  -7 3133.89  206.28
  -1  -1  -7   18.00    2.20
  -1   1   7   18.80    2.10
   1  -1   7   21.60    2.40
  -1  -1  -7   11.80    2.20
  -1   1   7   22.90    2.80
   1  -1   7   14.50    2.10
   1   1  -7   22.60    2.50
   1   1   7   19.00    2.40
  -1   1  -7   21.70    2.10
   1  -1  -7   17.70    2.10
   1   1   7   16.50    2.20
  -1  -1   7   19.60    2.60
   1  -1  -7   15.40    2.00
   2  -1   7  623.34   45.90
   2  -1   7  630.04   45.80
  -2  -1  -7  583.74   45.80
  -2   1   7  622.84   45.70
   2  -1  -7  609.44   45.60
   2   1   7  640.74   46.00
   2   1   7  644.34   46.00
  -2  -1   7  609.74   45.90
  -2   1  -7  580.74   45.60
  -3  -1  -7   95.99    7.80
  -3   1   7   92.79    7.70
   3   1   7   99.99    7.90
   3  -1  -7   83.09    7.40
  -3   1  -7  104.99    7.60
   3   1   7   81.09    7.90
   4  -1  -7  568.84   45.70
   4   1   7  666.23   46.20
   5  -1   7   54.69    5.60
   5  -1   7   65.39    5.20
   5   1   7   56.29    5.80
   5   1   7   48.60    5.30
  -5   1  -7   61.39    5.30
   6  -1   7 1200.28   87.29
   6  -1   7 1137.79   86.69
   6   1   7 1186.88   87.49
   7  -1   7   52.69    5.30
   7  -1   7   43.50    4.60
   7   1   7   51.79    5.70
   7   1   7   47.90    4.90
   8  -1   7   24.50    3.50
   8   1  -7   36.90    4.80
   8   1   7   28.70    3.90
   0  -2  -7   -0.30    0.50
   0   2  -7   -0.20    0.80
   0   2   7    0.50    0.60
   0   2   7   -0.30    0.70
   0  -2  -7    0.10    0.60
   0  -2   7    0.80    0.90
   0   2  -7    0.90    0.80
  -1   2   7   17.90    2.00
  -1   2   7    9.30    2.00
   1   2  -7   14.50    2.40
   1  -2   7   19.50    2.20
  -1  -2  -7   12.40    2.10
  -1  -2   7   15.80    2.10
  -1   2  -7   12.30    1.80
   1   2   7   11.50    2.10
   1  -2  -7   16.90    2.00
   1   2   7   19.00    2.20
   2  -2   7 2336.27  153.18
  -2   2   7 2013.00  152.88
   2  -2   7 2012.40  153.28
  -2   2  -7 2118.59  152.88
   2  -2  -7 2074.19  153.08
   2   2   7 2141.39  153.38
   2   2   7 1945.61  153.28
  -2  -2   7 2053.29  153.28
   3  -2   7   48.50    3.90
  -3   2   7   44.70    4.00
   3  -2   7   34.20    4.00
  -3   2  -7   44.50    3.80
   3   2   7   41.80    4.20
   3   2   7   39.50    4.30
   4  -2   7  909.11   62.49
   4  -2   7  806.22   62.89
   4  -2  -7  833.72   62.39
   4   2   7  880.31   63.29
   4   2   7  757.22   62.89
  -4   2  -7  890.61   62.59
   5  -2   7   49.80    4.50
   5  -2   7   52.59    5.10
   5  -2  -7   47.20    4.60
   5   2   7   68.49    7.50
   5   2   7   43.40    6.00
  -5   2  -7   56.29    4.60
   6  -2   7   42.10    4.60
   6   2   7   46.70    5.20
   7   2  -7   48.20    5.90
   7   2  -7   46.80    7.40
   7  -2   7   45.80    5.20
   7  -2   7   47.50    4.50
   7   2   7   48.30    5.20
   7  -2  -7   54.39    6.10
   7   2   7   61.39    6.00
   8  -2   7  505.15   38.00
  -8  -2  -7  440.06   40.20
   8   2  -7  512.15   39.20
   8   2   7  488.85   38.60
   8   2   7  525.35   38.20
   0  -3   7 1981.70  146.59
   0   3   7 2089.29  146.89
   0   3   7 2086.59  146.49
   0  -3  -7 1828.92  146.49
  -1   3   7  227.18   17.20
  -1   3   7  233.48   17.90
   1  -3   7  212.18   17.40
  -1   3  -7  245.38   17.40
   1   3   7  223.18   17.70
   1   3   7  234.78   17.60
  -1  -3   7  216.58   17.60
   2  -3   7  493.95   36.40
  -2   3   7  531.85   36.10
  -2   3   7  435.26   36.80
  -2   3  -7  479.15   36.10
   2  -3  -7  488.05   36.10
  -2  -3   7  489.55   36.70
   2   3   7  498.65   36.70
   2   3   7  468.15   36.70
  -3   3   7   82.19    6.10
   3  -3   7   76.19    6.30
   3   3   7   62.89    6.40
   3   3   7   72.29    7.20
  -3   3  -7   68.19    5.80
   3  -3  -7   74.49    5.90
   4  -3   7  269.97   21.80
   4   3   7  322.97   24.40
   4   3   7  281.77   22.30
   4  -3  -7  278.97   21.30
   5  -3   7   12.60    2.20
   5   3   7   18.50    3.20
   5   3   7   16.80    2.80
   6  -3   7 1084.89   76.69
   6   3   7 1070.19   77.09
   6  -3  -7  945.11   75.79
   7   3  -7   -6.90    2.90
   7  -3   7    0.50    1.00
   7   3   7   -2.20    1.50
   7  -3  -7    0.00    2.40
   7   3   7    1.90    1.40
  -8  -3  -7   46.30    8.80
   8  -3   7   43.20    5.20
   8  -3  -7   47.30    4.80
   8   3   7   58.89    6.40
   0   4   7    0.20    0.80
   0   4   7    0.00    0.80
   0  -4   7    0.70    0.90
   0  -4  -7    1.80    0.90
  -1   4   7   16.50    1.90
   1  -4   7   17.30    2.50
  -1  -4   7   13.90    2.30
  -1   4  -7   15.30    2.00
   1   4   7   18.90    2.40
   2  -4   7 2013.80  150.38
  -2   4   7 2000.40  150.88
  -2   4   7 2142.39  149.99
   2   4   7 1985.60  150.68
  -2   4  -7 2197.38  150.08
   2  -4  -7 1994.30  150.08
   2   4   7 1999.40  150.78
  -3   4   7   56.39    4.50
   3  -4   7   52.49    4.80
   3   4   7   52.99    5.50
   3   4   7   48.60    5.20
   3  -4  -7   49.00    4.40
   4  -4   7  340.47   25.20
   4   4   7  320.97   25.70
   5  -4   7    6.40    1.60
   5   4   7    5.40    1.70
   5   4   7   11.20    2.40
   6  -4   7   22.00    2.90
   6   4  -7   28.00    4.50
   6   4   7   15.00    3.40
   7   4  -7   47.00    5.90
   7  -4   7   46.10    5.00
   7   4  -7   41.20    7.90
  -7  -4  -7   35.80    9.10
   7   4   7   45.30    5.30
   7   4   7   59.79    6.30
   0  -5   7 1290.67   99.39
   0  -5  -7 1334.97   99.09
   0   5   7 1401.06   99.09
   0   5   7 1349.07   99.49
   1  -5   7   28.90    3.30
  -1   5   7   30.50    2.90
  -1   5   7   25.90    3.50
  -1   5  -7   31.80    3.20
   1   5   7   28.50    3.40
  -1  -5   7   25.10    3.50
   1   5   7   29.70    3.30
   1  -5  -7   27.60    3.10
  -2   5   7  258.37   17.60
  -2   5   7  203.18   18.40
   2  -5   7  229.38   18.00
  -2   5  -7  229.08   17.60
   2   5   7  245.48   18.50
   2   5   7  204.68   18.30
   2  -5  -7  255.77   17.80
   3  -5   7   28.80    3.30
  -3   5   7   30.20    6.20
   3   5   7   32.40    3.80
   3   5   7   27.90    3.60
   4  -5   7  346.87   29.60
   4   5  -7  434.56   31.00
   4   5   7  429.36   30.50
   4   5   7  373.86   30.40
   5  -5   7   49.10    5.00
   5   5  -7   51.59    5.90
   5   5   7   51.69    5.50
   5   5   7   55.89    5.90
   6   5  -7  738.83   59.29
   6   5  -7  801.22   63.89
   6  -5   7  744.43   57.89
  -6  -5  -7  779.72   64.19
   6   5   7  751.42   58.79
   6   5   7  836.92   59.29
   6  -5  -7  821.62   69.19
  -7  -5  -7    6.70    6.10
   7   5  -7    7.80    2.70
   7  -5   7    8.00    2.30
   7   5   7   12.10    3.30
   0   6   7    1.70    1.20
   0   6   7    1.40    0.90
  -1   6   7   16.20    2.90
   1  -6   7   13.30    2.40
  -1   6   7   16.50    2.00
  -1   6  -7   19.70    2.20
   1   6   7   14.60    2.70
   1   6   7   13.60    2.40
   1  -6  -7   15.10    2.30
  -2   6   7  594.14   42.30
   2  -6   7  542.35   42.80
   2   6  -7  552.04   43.40
  -2   6   7  541.05   43.30
   2   6   7  560.74   43.20
   2   6   7  555.84   43.40
  -2   6  -7  610.14   42.40
   2  -6  -7  609.04   42.50
   3  -6   7   32.10    3.80
   3   6  -7   42.80    4.60
  -3   6   7   30.40    4.30
   3   6   7   41.00    4.50
   3   6   7   40.10    4.40
   4   6  -7  824.82   63.19
   4  -6  -7  853.21   68.69
   5   6  -7    5.60    4.60
  -5  -6  -7   -0.10    3.50
   5  -6   7    3.40    1.40
   5   6  -7    1.90    1.30
   5   6   7    3.60    1.50
   5   6   7    0.30    1.50
  -6  -6  -7   24.20    8.30
   6   6  -7   47.20    5.40
   6  -6   7   37.80    3.90
   6   6  -7   17.70    6.60
   6   6   7   26.70    4.70
   7  -6   7    9.00    2.20
   7   6  -7    2.40    4.90
   7   6  -7    8.00    2.80
  -7  -6  -7    3.90    7.10
   7   6   7    7.40    2.60
   7   6   7   10.40    2.70
   0   7   7  701.43   54.99
   0   7   7  771.52   54.49
   0   7  -7  748.23   54.69
   0  -7   7  702.93   54.79
   1  -7   7    4.00    1.60
   1   7  -7    5.60    1.70
  -1   7   7    5.50    2.00
  -1   7   7    4.60    1.20
   1   7   7    5.30    1.70
  -1   7  -7    9.10    1.70
   1   7   7    6.60    2.00
   2   7  -7  174.28   15.40
  -2   7   7  166.68   15.30
  -2   7   7  204.38   14.40
   2   7   7  186.88   15.50
   2   7   7  203.68   15.40
   3   7  -7   55.39    5.80
  -3   7   7   52.69    5.70
   3   7   7   50.79    5.70
   3  -7  -7   50.89   10.80
   3   7   7   52.39    5.70
   4   7  -7  264.87   19.30
   4   7  -7  201.18   24.00
   4  -7   7  203.58   17.90
  -4  -7  -7  232.78   25.10
   4   7   7  242.38   18.80
   4   7   7  219.68   18.60
   5   7  -7   27.10    9.00
   5  -7   7   26.10    3.60
   5   7  -7   33.30    4.50
  -5  -7  -7   26.80    9.00
   5  -7  -7   37.60    8.10
   5   7   7   32.30    4.90
   5   7   7   33.10    4.90
   6  -7   7  535.25   40.30
  -6  -7  -7  584.74   50.79
   6   7  -7  540.65   47.40
   6   7  -7  507.55   41.80
   6   7   7  572.54   41.90
   6   7   7  500.65   41.40
   0   8   7   -0.30    1.10
   0   8   7   -0.90    1.30
   0   8  -7    0.00    1.10
   1   8  -7   11.60    2.40
   1  -8   7    7.20    2.30
  -1  -8  -7    3.60    4.20
  -1   8   7   11.40    2.60
   1  -8  -7   13.90    5.70
   1   8   7   14.70    3.10
  -1   8  -7   15.40    2.20
   1   8   7   14.00    2.60
  -2   8   7  713.93   54.69
   2   8  -7  719.53   54.69
   2  -8   7  694.53   54.09
   2   8   7  711.93   54.79
   2  -8  -7  756.52   61.89
   2   8   7  759.82   54.59
  -3  -8  -7   25.50    7.80
   3   8  -7    9.00    6.50
  -3   8   7   20.50    3.80
   3   8  -7   21.60    3.70
   3  -8   7   17.40    3.00
   3   8   7   27.40    3.90
   3   8   7   23.10    3.80
   4  -8   7  161.38   14.30
   4   8  -7  172.28   15.50
  -4  -8  -7  204.68   23.50
   4   8  -7  201.88   22.70
   4   8   7  199.88   15.60
   4  -8  -7  208.58   21.70
   4   8   7  166.68   15.30
  -4   8  -7  203.88   22.50
  -5  -8  -7    0.40    5.80
   5   8  -7    7.40    6.00
   5   8  -7    2.90    1.80
   5  -8   7    2.10    1.70
   5   8   7   -0.60    1.50
   5   8   7    4.60    2.20
   6   8  -7   22.80    4.60
   6  -8   7   15.00    2.60
  -6  -8  -7   -2.30    7.60
   6   8   7   19.80    3.70
   6   8   7    8.90    3.00
   0   9  -7  469.65   37.50
   0   9   7  501.35   38.20
   0  -9  -7  528.55   46.60
   0   9   7  497.35   37.40
   0   9  -7  503.65   46.60
  -1   9   7   24.60    3.90
   1   9  -7   17.00    7.30
   1   9  -7   21.10    3.50
  -1  -9  -7   19.50    7.60
  -1   9   7   19.60    2.80
   1  -9  -7   10.40    7.20
  -1   9  -7   23.00    2.90
   1   9   7   18.80    3.50
   1   9   7   21.60    3.40
  -1   9  -7   28.80    8.90
  -2   9   7  111.69   10.70
   2   9  -7  150.18   19.60
  -2  -9  -7  137.99   19.60
   2   9  -7  109.49   10.70
   2  -9  -7  162.58   19.40
   2   9   7  128.69   10.70
   2   9   7  113.19   10.90
  -3  -9  -7    0.60    6.70
   3  -9   7    0.00    1.40
   3   9  -7   -5.10    4.20
  -3   9   7   -0.50    1.60
   3   9  -7   -0.70    1.30
   3   9   7   -1.20    1.50
  -3   9  -7   -8.50    5.10
   3  -9  -7    0.70    4.50
   3   9   7   -0.10    1.30
   4  -9   7   79.19    7.00
  -4   9   7   75.39    7.70
   4   9  -7   70.59    8.50
  -4  -9  -7   70.89   15.60
   4   9  -7   67.69   14.90
   4   9   7   81.49    7.70
   4   9   7   66.19    7.90
   5   9  -7   10.70    7.10
   5   9  -7    9.70    3.10
   5  -9   7   13.00    2.50
  -5  -9  -7    5.60    8.50
   5   9   7   13.50    3.40
   5   9   7   14.00    3.00
   0  10   7   -3.10    1.20
   0  10  -7   -0.70    1.50
   0  10   7    2.30    1.60
   0 -10  -7   -8.60    5.90
   0  10  -7    6.10    9.10
   1  10  -7    7.40    5.90
  -1  10   7    3.20    2.40
   1  10  -7    3.80    2.00
  -1 -10  -7   -4.30    6.50
  -1  10   7   -0.40    1.20
   1  10   7    2.00    2.00
   1 -10  -7    9.50    5.80
  -1  10  -7    2.90    1.50
  -1  10  -7    5.10    6.00
   2  10  -7  303.87   33.00
   2  10  -7  295.57   24.40
  -2  10   7  290.57   24.50
  -2 -10  -7  320.67   33.90
   2 -10  -7  315.97   32.70
   2  10   7  320.87   24.30
   2  10   7  301.67   24.70
  -2  10  -7  317.97   33.60
   3  10  -7   23.20    4.00
  -3  10   7   13.10    3.50
  -3 -10  -7   24.40   11.20
   3  10  -7   13.30    7.40
   3  10   7   21.40    4.30
  -3  10  -7   11.50    6.70
   3  10   7   19.10    3.50
  -4 -10  -7  181.68   23.50
  -4  10   7  115.19   11.70
   4  10  -7  136.59   12.00
   4  10   7  115.79   11.60
   0  11  -7  270.57   21.90
   0  11  -7  314.27   33.20
   0  11   7  291.27   21.70
   0  11   7  248.68   22.40
   0 -11  -7  297.27   32.70
   1  11  -7   11.10    7.90
  -1  11   7   11.70    2.30
  -1  11   7   12.40    3.00
   1  11  -7   13.60    2.90
  -1 -11  -7   12.20    9.10
  -1  11  -7   16.70    2.80
  -1  11  -7   12.60   11.80
   1  11   7   12.10    3.00
   1  11   7   15.10    3.10
   1 -11  -7   13.50   10.50
   2  11  -7   24.70    4.60
   2  11  -7   28.30   12.20
  -2 -11  -7   35.00   12.20
  -2  11   7   34.30    5.20
  -2  11  -7   59.59   14.50
   2  11   7   37.60    5.50
   2 -11  -7   54.29   13.20
   3  11  -7    3.60    2.20
   3  11  -7    9.40    9.20
  -3 -11  -7   -4.90    9.70
  -3  11   7    4.60    2.60
   3  11   7    2.90    2.50
   3  11   7    6.70    2.50
   0  12  -7   -0.90    9.10
   0 -12  -7   -1.10   11.10
   0  12   7    0.20    1.70
   0  12   7    1.20    2.10
   0  12  -7   -4.20    1.80
  -1  12   7    3.90    2.40
   1  12  -7    0.20    2.20
   1  12   7    6.30    2.70
   0   0   8 4237.48  302.37
   0   0   8 3811.82  301.77
   0   0  -8 4336.07  303.67
  -1   0  -8    7.10    1.40
   1   0   8    3.60    1.10
  -1   0   8    3.20    1.20
   1   0   8    5.80    1.50
  -2   0  -8  474.65   36.40
  -2   0   8  489.55   36.50
   2   0   8  522.95   36.70
   2   0   8  461.85   36.60
  -3   0  -8  237.18   18.20
   3   0   8  209.88   18.30
   3   0   8  260.57   18.40
  -3   0   8  237.18   18.30
   4   0   8  563.24   45.40
   4   0   8  642.44   45.20
   5   0   8   51.89    4.90
   5   0   8   49.30    5.30
   6   0   8  590.64   46.70
   6   0   8  658.63   47.40
   7   0   8   47.40    5.10
   7   0   8   35.90    4.30
   8   0   8   25.00    3.80
   0  -1   8    2.10    1.00
   0   1   8    0.10    0.70
   0   1   8    1.30    1.10
   1  -1   8  144.09   11.80
   1  -1   8  163.88   12.10
  -1   1   8  150.58   12.40
  -1   1   8  145.39   11.70
   1   1   8  150.68   12.00
   1  -1  -8  147.79   11.70
   1   1   8  143.19   11.80
  -1   1  -8  149.19   11.80
  -1  -1   8  148.29   11.80
   2  -1   8 1736.13  137.89
  -2   1   8 1906.91  137.79
   2   1   8 2066.19  138.19
   2   1   8 1745.53  137.89
  -2  -1   8 1872.11  137.99
  -2   1  -8 2010.50  137.79
   2  -1  -8 1798.62  137.69
   3  -1   8   83.89    6.40
  -3   1   8   70.19    6.30
  -3   1  -8   71.09    6.20
  -3  -1   8   70.39    6.60
   3   1   8   69.89    6.40
   4  -1   8  795.12   62.29
   4  -1   8  912.81   61.99
   4   1   8  755.92   62.09
   4   1   8  856.11   62.49
  -4   1  -8  857.91   61.99
   5  -1   8   -0.20    0.80
   5  -1   8    0.10    0.90
   5   1   8   -0.90    0.80
   5   1   8    0.50    1.20
  -5   1  -8    0.90    0.90
   6   1   8   89.89    8.00
   7  -1   8   11.00    2.00
   7  -1   8    6.80    2.30
   7   1   8   11.20    2.30
   8   1  -8  516.15   41.80
   8  -1   8  574.54   41.50
   8   1   8  504.65   41.00
   8   1   8  531.65   40.60
   0   2   8 1643.34  124.49
   0   2  -8 1844.42  124.39
   0   2   8 1683.23  124.09
   0  -2   8 1587.74  124.19
   1  -2   8  126.79   10.70
  -1   2   8  129.39   11.20
  -1   2   8  135.19   10.50
  -1  -2   8  139.39   10.80
  -1   2  -8  143.09   10.70
   1   2   8  137.89   10.80
   1  -2  -8  125.79   10.50
   1   2   8  129.09   11.00
   2  -2   8  453.35   35.70
  -2   2   8  482.75   35.30
   2  -2   8  514.25   35.60
   2  -2  -8  470.25   35.30
  -2   2  -8  500.15   36.30
   2   2   8  423.46   35.60
  -2  -2   8  471.25   35.70
   2   2   8  469.45   35.70
   3  -2   8   14.60    2.00
  -3   2   8   10.10    1.70
   3  -2   8    8.20    1.70
  -3   2  -8   11.40    1.80
   3   2   8    8.10    1.80
   3   2   8    7.90    2.00
   3  -2  -8    9.20    1.60
   4  -2   8  471.15   36.90
   4   2   8  477.45   37.00
   4   2   8  502.15   37.30
  -4   2  -8  556.54   36.70
   4  -2  -8  438.86   36.30
   5  -2   8   21.90    2.40
  -5   2  -8   22.20    3.80
   5   2   8   19.00    3.50
   5   2   8   17.20    3.00
   6  -2   8 1066.69   78.29
   6  -2   8 1065.59   77.59
   6   2   8 1011.00   78.29
  -6   2  -8 1022.40   77.69
   6   2   8 1093.49   78.79
   7  -2   8    2.70    1.50
   7  -2   8    2.40    1.10
   7   2   8    4.30    1.70
   8  -2   8   40.10    7.90
   8   2   8   45.30    5.80
   0   3  -8    1.50    0.90
   0  -3   8    0.50    0.80
   0   3   8    0.50    1.00
   0   3   8    0.20    0.70
   1  -3   8    1.50    1.10
  -1   3   8    2.20    1.00
  -1   3   8    2.30    1.30
   1   3   8    1.20    1.00
  -1  -3   8    3.50    1.20
   1  -3  -8    1.80    1.00
   1   3   8    1.00    1.00
  -2   3   8 2143.39  156.38
  -2   3   8 2203.08  155.48
   2  -3   8 2037.90  155.68
   2  -3  -8 1964.10  155.38
   2   3   8 2085.39  156.08
   2   3   8 2161.18  155.98
  -2  -3   8 2133.39  155.98
  -2   3  -8 2235.48  155.48
  -3   3   8  111.99    8.20
   3  -3   8   93.89    8.40
   3  -3  -8   88.19    7.90
   3   3   8  102.59    9.00
  -3   3  -8  109.29    8.10
   3   3   8   98.79    8.80
   4  -3   8  487.85   37.70
   4  -3  -8  490.05   37.20
   4   3   8  462.45   37.90
  -4   3  -8  523.65   37.30
   4   3   8  540.05   38.30
   5  -3   8    0.60    1.20
   5   3   8    0.10    1.10
   5  -3  -8    0.80    0.90
   5   3   8    2.60    1.60
   6  -3   8   37.00    4.20
   7   3  -8   58.29    6.80
   7  -3   8   49.60    5.70
   7   3  -8   61.19    9.10
   7   3   8   57.79    6.50
   7   3   8   55.59    5.90
   0   4   8 1001.30   80.29
   0  -4   8 1078.09   80.09
   0   4   8 1165.78   79.99
  -1   4   8   63.19    5.40
   1  -4   8   61.39    5.80
  -1   4   8   60.09    6.00
   1  -4  -8   56.69    5.30
  -1   4  -8   70.99    5.60
   1   4   8   58.79    5.80
   1   4   8   62.29    5.80
  -1  -4   8   64.19    5.90
   2  -4   8  246.68   19.10
  -2   4   8  271.47   18.70
   2  -4  -8  248.58   18.80
   2   4   8  225.88   19.90
  -2   4  -8  236.08   18.60
  -2  -4   8  243.78   19.40
   3  -4   8  117.69   11.20
  -3   4   8  138.49   10.50
   3   4   8  140.89   11.30
   3  -4  -8  151.68   11.20
   3   4   8  116.69   11.10
   4   4   8  531.65   39.30
   4   4   8  497.85   39.30
   5  -4   8   66.49    6.50
   5   4   8   71.39    7.10
   5   4   8   78.49    7.10
   6   4  -8  951.20   72.49
   6  -4   8  929.01   70.99
   6   4   8 1032.80   72.19
   6   4   8  912.21   71.59
   7   4  -8    4.60    4.20
   7  -4   8    3.40    1.60
   7   4  -8    3.60    1.90
  -7  -4  -8   -3.10    4.60
   7   4   8    1.70    1.80
   7   4   8   -0.60    1.40
   0   5   8    0.40    0.80
   0   5   8    0.50    1.20
  -1   5   8   14.00    2.80
  -1   5   8   14.50    2.10
   1  -5   8   18.50    3.40
   1   5   8   15.50    2.70
   1  -5  -8   15.70    2.30
  -1  -5   8   11.90    2.50
   1   5   8   17.90    2.80
  -1   5  -8   22.00    2.40
  -2   5   8  927.51   72.69
  -2   5   8 1006.30   71.69
  -2   5  -8  996.60   71.79
   2   5   8  917.51   72.59
   2   5   8  990.20   72.49
   2  -5  -8  998.50   71.99
  -3   5   8   64.59    6.30
   3  -5   8   53.39    5.60
  -3   5   8   59.59    4.80
   3   5   8   63.19    5.90
   3   5   8   57.99    5.90
   3  -5  -8   48.50    4.80
   4  -5   8  680.13   53.69
   4   5   8  789.32   54.69
   4   5   8  699.23   54.39
   5  -5   8    6.70    2.00
   5   5  -8    3.70    1.70
   5   5   8    8.10    2.60
   5   5   8    2.10    1.30
   6  -5   8   39.70    4.60
   6   5  -8   40.70    5.40
   6   5   8   38.30    7.00
   6   5   8   50.49    5.40
  -7  -5  -8   19.70    7.40
   7   5  -8   31.20    5.30
   7  -5   8   28.10    3.90
   7   5   8   26.70    4.50
   7   5   8   33.00    5.30
   0   6   8 1106.99   83.49
   0   6   8 1163.78   82.89
   0  -6   8 1091.69   83.29
   1  -6   8   53.89    5.60
  -1   6   8   63.59    5.20
  -1   6   8   57.49    6.00
  -1   6  -8   64.39    5.50
  -1  -6   8   51.19    5.80
   1  -6  -8   54.09    5.30
   1   6   8   62.29    6.00
   1   6   8   61.99    5.70
  -2   6   8  177.98   16.60
  -2   6   8  226.18   15.70
   2  -6   8  204.48   16.20
  -2   6  -8  200.38   15.70
   2   6   8  191.38   16.60
   2   6   8  225.38   16.60
  -3   6   8  126.69   11.70
   3  -6   8  124.49   11.00
   3   6  -8  143.69   11.90
   3   6   8  141.79   11.60
   3   6   8  137.49   11.70
   4  -6   8  269.17   22.00
   4   6  -8  294.67   23.30
   4   6   8  277.07   22.90
   4   6   8  311.67   23.10
   5   6  -8   17.50    3.70
   5  -6   8   10.40    2.30
   5  -6  -8    9.40    5.30
   5   6   8   13.50    3.20
   5   6   8   12.80    3.00
   6   6  -8  469.15   38.30
   6   6  -8  470.35   43.40
   6  -6   8  492.35   36.80
   6   6   8  534.65   38.30
   6   6   8  451.85   39.00
   0  -7   8    0.00    1.50
   0   7   8    0.90    1.60
   0   7  -8   -0.30    1.00
   0   7   8    0.20    1.00
  -1   7   8   59.49    6.20
  -1   7   8   69.49    5.40
   1   7  -8   50.19    5.90
   1  -7   8   51.99    5.80
   1   7   8   56.99    6.10
   1   7   8   61.59    5.80
  -1   7  -8   56.59    5.30
  -1   7  -8   62.69    5.70
  -2   7   8  706.23   54.99
  -2   7   8  747.13   53.79
   2  -7   8  695.63   54.39
   2   7  -8  721.43   54.99
   2   7   8  754.92   55.09
   2   7   8  742.83   54.79
   3   7  -8   30.00    4.00
  -3   7   8   30.90    4.60
   3  -7   8   25.30    3.50
   3   7   8   29.10    4.10
   3   7   8   33.80    4.20
   4  -7   8  293.87   23.50
   4   7  -8  286.87   24.50
   4   7   8  350.76   24.80
   4  -7  -8  327.17   30.60
   4   7   8  285.17   24.30
   5  -7   8    3.00    1.80
   5   7  -8    5.90    2.80
  -5  -7  -8    7.30    6.00
   5   7  -8   10.40    5.50
   5   7   8    0.50    2.30
   6   7  -8   29.80    5.30
   6  -7   8   27.20    3.70
   6   7  -8   21.30    8.30
  -6  -7  -8   22.20    9.40
   6   7   8   22.60    4.10
   0   8   8  719.23   52.29
   0   8  -8  686.83   52.49
   0   8   8  691.93   53.09
   1  -8   8   20.80    3.50
  -1   8   8   21.40    2.90
  -1   8   8   26.50    4.20
   1   8  -8   22.00    3.50
   1   8   8   26.70    4.30
   1   8   8   23.00    3.20
  -1   8  -8   25.80    3.00
   2  -8   8  162.68   13.20
  -2   8   8  155.68   13.70
   2   8  -8  145.29   13.50
   2  -8  -8  191.58   20.90
   2   8   8  172.98   13.50
   2   8   8  152.08   13.60
  -3  -8  -8    1.90    5.40
   3  -8   8    4.20    1.70
   3   8  -8    6.90    2.30
  -3   8   8    6.10    2.40
   3   8   8    4.40    1.80
   3   8   8    8.30    2.20
   4  -8   8  100.99    8.30
   4   8  -8   99.69    9.40
  -4  -8  -8  108.79   20.40
   4   8  -8   66.89   14.60
   4   8   8   92.79    9.00
   4  -8  -8   79.09   14.80
   4   8   8   82.99   10.50
   5   8  -8   25.50    9.70
   5  -8   8   33.20    4.20
   5   8  -8   31.30    5.30
   5   8   8   27.30    4.60
   0  -9  -8    1.10    6.20
   0   9   8    0.90    1.90
   0   9  -8   -1.00    2.60
  -1   9   8   19.20    3.60
  -1  -9  -8    6.90    9.40
   1   9  -8   14.00    3.00
  -1   9   8   16.10    2.50
  -1   9  -8   15.20    2.60
   1  -9  -8    7.70    6.00
   1   9   8   20.00    3.90
   1   9   8   14.80    2.90
   2  -9   8  446.86   35.80
   2   9  -8  488.55   45.60
  -2  -9  -8  543.75   46.70
   2   9  -8  474.75   36.40
  -2   9   8  457.15   36.40
   2   9   8  437.36   36.40
   2   9   8  491.35   36.20
  -3  -9  -8   27.40   10.70
   3   9  -8   30.10    4.80
  -3   9   8   30.70    4.90
   3   9  -8   15.80    9.60
   3  -9   8   31.40    3.80
   3   9   8   25.30    5.40
   3   9   8   31.40    4.30
   3  -9  -8   29.50    8.80
   4   9  -8  104.09   18.60
  -4  -9  -8  118.49   20.00
   4   9  -8  116.79   11.50
   4  -9   8  130.39   10.70
   4   9   8  115.79   11.50
   4   9   8  148.19   11.90
   5   9  -8    1.60    1.80
   5   9  -8    9.50    7.10
   5  -9   8   -0.50    1.80
  -5  -9  -8   -2.90    9.10
   5   9   8   -0.20    1.70
   5   9   8   -1.60    1.60
   0  10   8  284.97   24.40
   0 -10  -8  308.77   33.90
   0  10  -8  292.77   23.90
   0  10  -8  335.57   34.50
   0  10   8  321.37   23.70
   1  10  -8   58.59   14.80
  -1  10   8   27.50    4.70
   1  10  -8   38.70    4.30
  -1  10   8   33.70    3.70
  -1 -10  -8   36.60   11.70
   1  10   8   25.80    4.80
  -1  10  -8   28.50    3.70
   1  10   8   37.60    4.30
  -1  10  -8   40.60   12.10
   2  10  -8   42.50   11.40
  -2 -10  -8   64.49   15.80
  -2  10   8   49.30    6.00
   2  10  -8   48.00    5.90
   2  10   8   44.30    5.90
   2  10   8   58.59    6.10
  -2  10  -8   54.79   17.30
   2 -10  -8   56.09   12.20
   3  10  -8    0.50    7.20
  -3 -10  -8   12.30    8.40
  -3  10   8    2.60    2.10
   3  10  -8   -0.10    1.60
   3  10   8    2.50    1.90
   3  10   8    3.10    1.90
   4  10  -8   68.19   16.10
  -4  10   8   70.79    8.40
   4 -10   8   84.49    7.40
   4  10  -8   81.09    8.40
  -4 -10  -8   45.60   13.80
   4  10   8   71.69    8.10
   4  10   8   85.99    8.30
   0  11   8   -1.80    1.80
   0 -11  -8    0.00    8.10
   0  11  -8    1.50    7.90
   0  11   8    1.80    1.60
  -1  11   8    2.30    1.60
   1  11  -8    2.10    7.50
   1  11  -8    2.00    1.90
  -1 -11  -8   -5.60    8.00
  -1  11  -8   13.60   13.80
   1  11   8    0.40    1.90
   1 -11  -8   -1.40    7.70
   1  11   8    0.30    1.80
  -1  11  -8    1.10    1.80
  -2 -11  -8  208.58   27.60
   2  11  -8  179.48   25.40
  -2  11   8  150.98   15.40
   2  11  -8  185.98   15.50
   2  11   8  169.28   15.70
   2  11   8  191.68   15.20
  -2  11  -8  204.78   26.30
   0   0   9    1.50    1.40
   0   0   9    1.60    1.10
   1   0   9   11.10    2.20
   1   0   9   12.60    2.00
  -1   0   9   15.50    2.30
  -2   0   9 1492.25  111.09
   2   0   9 1385.96  111.19
   2   0   9 1648.64  111.39
  -3   0   9   73.29    6.60
   3   0   9   72.49    6.60
   3   0   9   77.59    6.80
   4   0   9  702.33   52.49
   5   0   9   31.30    3.80
   5   0   9   42.70    4.50
   6   0   9   41.40    4.90
   7   0   9   27.50    3.50
   7   0   9   28.50    5.00
   0  -1   9 2168.38  160.68
   0   1   9 2201.88  160.68
   0   1   9 2195.48  161.18
   1  -1   9  113.29   10.00
  -1   1   9  134.09   10.80
   1  -1   9  140.09   10.50
  -1   1   9  119.89    9.90
   1   1   9  117.69   10.00
   1   1   9  130.59   10.40
  -1  -1   9  114.49   10.00
   2  -1   9  496.65   37.70
  -2   1   9  529.45   37.20
   2  -1   9  508.45   37.40
  -2   1  -9  467.05   37.20
   2   1   9  465.85   37.40
   2   1   9  493.15   37.90
  -2  -1   9  510.55   37.40
  -3   1   9   67.59    6.20
   3  -1   9   70.79    6.40
   3  -1   9   75.89    6.30
  -3  -1   9   67.79    6.50
   3   1   9   61.39    6.30
  -3   1  -9   73.89    6.10
   3   1   9   68.39    6.30
   4  -1   9  160.08   14.00
   4   1   9  195.08   14.10
   4   1   9  166.38   14.20
   5  -1   9   38.90    4.00
   5  -1   9   40.10    4.40
   5   1   9   40.70    4.20
   5   1   9   35.50    4.60
   6  -1   9  831.72   58.79
   6  -1   9  731.83   57.99
   6   1   9  850.61   59.09
   6   1   9  713.23   58.29
   7  -1   9   11.10    2.60
   7  -1   9    7.50    1.70
   7   1   9    6.20    1.90
   7   1   9   10.80    3.10
   0  -2   9    0.10    0.80
   0   2   9    1.10    0.90
   0   2   9    1.30    1.20
  -1   2   9   11.80    2.60
   1  -2   9   13.70    2.30
  -1   2   9   21.70    2.40
   1   2   9   16.20    2.50
  -1   2  -9   16.30    2.20
  -1  -2   9   16.90    2.70
   1   2   9   15.20    2.80
  -2   2   9 1863.91  135.89
  -2  -2   9 1763.42  136.49
   2   2   9 1856.51  136.49
  -2   2  -9 1916.91  135.99
   3  -2   9  110.79    9.60
  -3   2   9  113.09    9.30
   3  -2   9  119.19    9.40
  -3  -2   9  113.19    9.80
  -3   2  -9  116.79    9.30
   3   2   9  116.39    9.80
   3   2   9  110.59    9.70
   4  -2   9  510.55   38.60
   4  -2   9  522.35   39.00
  -4   2  -9  506.25   38.60
   4   2   9  584.54   39.50
   4   2   9  461.65   39.00
   5  -2   9    4.90    1.30
   5  -2   9    4.60    1.80
  -5   2  -9    2.50    1.30
   5   2   9    0.60    1.10
   5   2   9    1.70    1.40
   6  -2   9   29.30    3.80
   6   2   9   23.70    4.10
   7  -2   9   26.00    3.00
   7  -2   9   26.10    3.90
   7   2   9   25.60    4.20
   7   2   9   30.90    4.00
   0   3   9  504.15   37.90
   0  -3   9  516.45   38.40
   0   3   9  494.75   38.60
  -1   3   9   60.49    7.10
   1  -3   9   56.89    7.00
  -1   3   9   64.09    5.70
   1   3   9   65.29    6.50
   1   3   9   65.39    6.00
  -1   3  -9   73.39    5.90
   2  -3   9  271.57   21.80
  -2   3   9  287.37   21.20
  -2   3   9  258.17   22.10
  -2   3  -9  269.77   21.10
  -2  -3   9  283.77   21.80
   2   3   9  297.67   21.70
   3  -3   9   59.09    5.50
  -3   3   9   59.69    5.10
   3   3   9   64.29    5.80
   3   3   9   46.80    5.40
  -3   3  -9   50.79    5.30
   3  -3  -9   60.69    5.30
   4  -3   9  359.46   29.70
   4   3   9  382.56   30.30
  -4   3  -9  422.66   29.40
   4   3   9  396.56   30.20
   5  -3   9   95.99    9.00
   5   3   9  109.29    9.40
   5   3   9  110.29    9.60
   6  -3   9 1217.08   87.29
   6   3   9 1199.98   89.09
   6   3   9 1106.49   87.39
   7  -3   9    4.00    2.00
   7   3   9    6.20    2.30
   7   3   9    7.60    2.70
   0  -4   9   -0.40    0.80
   0   4   9    0.00    0.80
   0   4   9    0.30    1.00
  -1   4   9    2.10    1.00
  -1   4   9    2.30    1.40
  -1   4  -9    1.50    1.10
   1   4   9    0.90    1.20
  -1  -4   9    0.70    0.90
   1   4   9    1.80    1.20
  -2   4   9  746.83   57.59
   2  -4   9  755.82   56.89
  -2   4   9  789.72   56.59
   2  -4  -9  676.33   56.59
  -2   4  -9  800.12   56.69
  -2  -4   9  814.12   57.39
   2   4   9  727.83   57.29
   2   4   9  805.02   57.29
   3  -4   9   80.99    7.40
  -3   4   9   84.89    7.00
   3   4   9   93.89    7.90
  -3   4  -9   84.39    6.90
   3   4   9   81.89    7.70
   3  -4  -9   82.99    7.00
   4  -4   9  940.61   67.89
   4  -4  -9  836.22   67.19
   4   4   9  997.40   68.49
   4   4   9  883.61   68.29
   5  -4   9    6.90    2.00
   5   4   9    6.70    2.00
   5   4   9    1.70    1.60
   5  -4  -9    4.20    1.30
   6  -4   9   49.00    5.20
   6   4   9   47.40    6.50
   7   4  -9   27.60    8.40
   7  -4   9   36.70    4.40
   7   4   9   39.10    6.00
   7   4   9   35.00    5.20
   0   5   9  648.44   46.70
   0  -5   9  636.74   47.00
   0   5   9  584.64   47.20
   1  -5   9   67.29    6.60
  -1   5   9   76.99    6.30
  -1   5   9   66.29    7.00
  -1  -5   9   73.69    6.90
   1   5   9   70.49    7.00
  -1   5  -9   80.69    6.60
  -2   5   9  240.18   16.90
   2  -5   9  219.88   17.30
   2  -5  -9  221.48   17.00
   2   5   9  194.08   17.60
  -2   5  -9  217.38   17.10
  -3   5   9   45.70    4.30
   3  -5   9   43.60    4.80
  -3   5   9   59.99    6.10
   3  -5  -9   38.20    4.20
   3   5   9   56.59    5.40
   3   5   9   54.29    5.40
   4  -5   9  276.47   22.80
   4   5   9  322.07   23.70
   4   5   9  293.27   23.50
   5  -5   9   29.00    4.20
   5   5   9   42.40    4.70
   5   5   9   35.70    4.40
   6   5  -9  649.83   51.59
   6  -5   9  675.93   50.19
   6   5   9  716.23   51.39
   6   5   9  628.84   50.79
   7   5  -9   13.50    9.60
  -7  -5  -9   11.80    7.30
   7  -5   9    4.60    2.30
   7   5   9    9.30    2.90
   0   6   9    1.90    1.40
   0  -6   9    1.60    1.30
   0   6   9    1.50    1.10
  -1   6   9    6.00    2.30
  -1   6   9   11.90    1.90
   1  -6   9   11.40    2.50
  -1  -6   9   10.70    2.60
   1   6   9    8.20    2.30
  -1   6  -9   10.80    2.10
   1   6   9    8.30    2.10
   2  -6   9  791.92   59.69
  -2   6   9  820.12   59.19
  -2   6   9  776.82   60.39
  -2   6  -9  817.62   59.19
   2  -6  -9  766.62   59.39
   2   6   9  793.02   60.29
   2   6   9  834.92   60.09
   3  -6   9   37.10    4.50
  -3   6   9   38.70    5.30
   3   6   9   45.10    4.90
   3   6   9   45.70    5.00
   4  -6   9  330.67   25.40
   4   6  -9  329.77   26.60
   4   6   9  307.67   26.10
   4   6   9  355.36   26.40
   5  -6   9   24.70    3.40
   5   6   9   20.90    4.00
   6   6  -9    3.90    6.10
   6  -6   9   20.80    3.20
   6   6  -9   29.70    4.80
  -6  -6  -9    2.00    6.60
   6   6   9   28.80    4.30
   6   6   9   16.60    3.70
   0   7   9  847.72   59.79
   0   7   9  763.32   60.29
   0  -7   9  807.52   60.09
   0   7  -9  780.82   59.89
  -1   7   9   49.10    4.60
   1  -7   9   41.10    4.90
   1   7  -9   44.60    5.00
  -1   7   9   40.20    5.40
   1   7   9   45.00    5.30
  -1   7  -9   51.79    4.70
   1   7   9   55.29    5.10
   2   7  -9  213.98   17.90
  -2   7   9  198.18   17.90
   2  -7   9  217.28   17.40
  -2   7   9  236.88   16.70
   2   7   9  240.88   17.70
   2  -7  -9  241.68   17.10
  -2   7  -9  208.08   16.80
   2   7   9  203.78   17.80
  -2   7  -9  198.38   16.70
   3   7  -9   36.60    4.50
   3  -7   9   29.60    3.90
  -3   7   9   39.40    5.40
   3   7   9   37.50    4.60
   3   7   9   31.90    4.50
   4  -7   9   91.99    8.40
   4   7  -9  100.29    9.40
   4   7   9  101.19    9.30
   4   7   9   94.19   10.30
   5  -7   9   20.90    3.40
   5   7  -9   10.30    6.40
   5   7  -9   24.60    4.70
   5   7   9   23.00    4.30
   5   7   9   27.20    4.40
   6   7  -9  313.27   32.90
   6  -7   9  333.87   24.70
  -6  -7  -9  361.16   35.80
   6   7  -9  301.37   26.20
   6   7   9  277.67   25.50
   6   7   9  340.47   26.10
   0   8   9    0.80    1.60
   0   8  -9    0.40    1.60
   0   8   9    1.20    1.30
   1   8  -9   14.70    3.10
  -1   8   9   18.70    2.70
   1  -8   9   21.00    3.50
  -1   8   9   24.50    4.00
   1   8   9   20.50    3.70
   1   8   9   20.60    3.20
  -1   8  -9   21.70    3.10
   2  -8   9  419.06   32.80
  -2   8   9  448.16   32.10
   2   8  -9  424.26   33.30
  -2   8   9  402.96   33.50
   2   8   9  452.45   33.10
   2   8   9  419.86   33.40
   3   8  -9   33.60    4.60
   3  -8   9   35.80    4.10
  -3   8   9   35.30    4.90
   3  -8  -9   25.00    8.20
   3   8   9   29.70    4.80
   3   8   9   36.70    4.40
  -4  -8  -9  257.17   27.90
   4  -8   9  218.88   17.10
   4   8  -9  232.48   26.00
   4   8   9  189.48   17.80
   5   8  -9   -0.60    6.10
  -5  -8  -9    0.60    7.20
   5   8  -9    1.60    2.00
   5  -8   9   -0.70    1.60
   5   8   9    1.50    1.90
   5   8   9    2.50    2.10
   0   9   9  353.16   28.80
   0   9  -9  349.96   28.10
   0   9   9  370.66   27.90
   0  -9  -9  398.96   38.00
  -1   9   9   32.40    3.60
   1   9  -9   34.80    4.20
  -1   9   9   28.00    4.60
  -1  -9  -9   24.30    9.30
  -1   9  -9   33.20    3.80
   1  -9  -9   21.70    9.00
   1   9   9   28.00    4.70
   1   9   9   34.10    4.10
  -2   9   9   90.59    7.40
   2  -9   9   91.79    8.40
  -2  -9  -9   84.39   16.50
   2   9  -9   81.09    8.50
   2  -9  -9   86.59   16.50
   2   9   9   94.49    8.60
  -3   9   9    1.20    1.90
  -3  -9  -9    4.50    8.50
   3   9  -9    1.20    5.70
   3   9  -9    4.20    2.40
   3  -9   9    3.60    1.60
   3   9   9    0.90    1.90
   3   9   9    0.60    1.70
   4   9  -9   93.99    9.20
  -4  -9  -9   87.69   17.90
   4  -9   9  103.19    8.40
   4   9  -9   86.09   17.30
   4   9   9   85.39    9.00
   4   9   9   77.99    8.90
   0 -10  -9   -7.20    7.60
   0  10   9    5.70    3.80
   0  10  -9    0.50    8.30
   0  10   9   -1.80    1.40
   0  10  -9    0.70    1.50
  -1  10   9    4.20    1.40
  -1  10   9    0.10    2.10
   1  10  -9    2.70    1.80
   1  10  -9   -0.90    6.80
  -1 -10  -9   -1.10    7.90
   1  10   9    0.70    1.80
   1  10   9    1.00    1.40
  -1  10  -9    1.90    1.80
  -1  10  -9    1.90    6.50
  -2  10   9  203.18   19.90
  -2 -10  -9  293.67   32.30
   2  10  -9  254.27   29.80
   2  10  -9  244.38   20.00
   2  10   9  219.78   20.00
  -2  10  -9  250.97   29.80
   2 -10  -9  257.97   30.10
   2  10   9  274.67   19.90
  -3  10   9   14.50    3.60
  -3 -10  -9   34.20   11.80
   3  10  -9   12.80    8.90
   3  10  -9   21.10    3.90
   3  10   9   23.40    4.10
   3  10   9   22.50    4.30
   0  11   9  133.39   13.00
   0  11   9  150.18   12.10
   0  11  -9  137.19   12.20
   0  11  -9  181.88   27.60
   1  11  -9   22.30    3.60
   1  11  -9   15.30   11.00
  -1  11   9   15.80    3.60
  -1 -11  -9   16.50   11.10
  -1  11  -9   13.80   11.30
  -1  11  -9   16.30    4.10
   1  11   9   18.30    4.20
   1 -11  -9   14.60   11.10
   1  11   9   18.70    3.30
   0   0  10 2391.36  174.98
   0   0  10 2358.36  174.38
   1   0  10  355.56   27.70
   1   0  10  368.96   27.80
  -1   0  10  353.86   27.30
   2   0  10  303.37   25.50
   2   0  10  345.57   25.50
  -2   0  10  343.17   25.30
   3   0  10  144.99   11.20
   3   0  10  121.79   11.00
   4   0  10  224.18   18.50
   4   0  10  228.98   17.90
   5   0  10    3.20    1.70
   5   0  10    6.40    2.10
   6   0  10  544.65   39.60
   6   0  10  489.05   39.00
   7   0  10    0.50    1.20
   7   0  10    0.70    1.50
   0   1  10   -1.00    1.60
   0   1  10    1.50    1.10
   1  -1  10   -0.20    1.20
  -1   1  10    0.60    1.10
   1  -1  10    1.30    1.20
   1   1  10   -0.30    1.20
   1   1  10    0.70    1.30
   2  -1  10 1632.24  119.49
  -2   1  10 1607.04  119.19
   2  -1  10 1644.14  119.39
   2   1  10 1541.55  119.59
  -2  -1  10 1611.54  119.89
   2   1  10 1680.13  119.59
   3  -1  10   40.50    4.30
   3  -1  10   41.70    4.20
  -3   1  10   37.70    4.10
  -3  -1  10   37.80    4.40
   3   1  10   37.80    4.20
   3   1  10   40.60    4.30
   4  -1  10  352.06   26.80
   4  -1  10  323.37   26.40
   4   1  10  325.37   26.60
   4   1  10  385.26   27.00
   5  -1  10   47.60    4.80
   5   1  10   50.79    5.20
   6  -1  10   39.90    4.10
   6  -1  10   29.10    4.30
   6   1  10   45.90    4.60
   7  -1  10   57.09    6.10
   7   1  10   59.99    6.00
   7   1  10   52.49    6.30
   0   2  10 1225.48   93.29
   0  -2  10 1272.57   92.79
   0   2  10 1266.27   92.69
   1  -2  10   66.79    6.40
  -1   2  10   68.29    6.20
  -1   2  10   80.09    7.10
   1   2  10   76.99    6.90
  -1  -2  10   68.89    6.50
   1   2  10   68.89    6.60
   2  -2  10  223.88   17.30
  -2   2  10  229.68   17.10
  -2  -2  10  218.98   17.40
   2   2  10  191.88   17.40
   2   2  10  231.18   17.50
  -3   2  10    2.00    1.30
   3  -2  10    1.40    1.10
   3  -2  10    4.20    1.50
   3   2  10    4.20    1.40
   3   2  10    0.70    1.20
  -3  -2  10    3.90    1.60
   4  -2  10  485.95   33.60
   4  -2  10  414.56   33.70
   4   2  10  445.76   34.00
   4   2  10  426.06   34.10
   5  -2  10   99.29    8.60
   5  -2  10  105.89    9.20
   5   2  10   99.09    9.10
   5   2  10  109.09    9.60
   6  -2  10  666.13   51.59
   6   2  10  721.83   52.39
   7  -2  10    7.00    1.60
   7  -2  10   13.40    3.90
   7   2  10   12.00    3.00
   7   2  10    5.40    2.10
   0  -3  10    0.40    1.10
   0   3  10    1.40    1.20
   0   3  10    0.70    0.90
  -1   3  10    3.20    1.60
  -1   3  10    3.20    1.30
   1  -3  10    4.10    1.60
   1   3  10    3.80    1.50
   1   3  10    3.50    1.60
  -1  -3  10    1.60    1.40
  -2   3  10  798.42   61.69
  -2   3  10  816.62   60.49
   2   3  10  843.02   60.99
  -2   3 -10  800.42   60.99
  -2  -3  10  849.72   61.09
   2   3  10  785.52   61.19
   3  -3  10   59.49    5.50
  -3   3  10   48.50    5.00
   3   3  10   53.29    5.60
   3   3  10   67.79    5.90
  -3   3 -10   50.79    4.80
   4  -3  10  869.31   62.79
  -4   3 -10  777.52   62.19
   4   3  10  939.91   63.39
   4   3  10  782.92   62.89
   5  -3  10   20.40    3.30
   5   3  10   21.50    3.90
   6  -3  10   30.80    4.00
   6   3  10   27.80    4.50
   7   3  10   23.50    3.90
   7   3  10   29.40    4.70
   0   4  10  709.43   53.59
   0   4  10  701.43   52.89
   0  -4  10  718.83   53.19
  -1   4  10   69.09    6.90
  -1   4  10   69.19    6.00
   1  -4  10   64.99    6.40
  -1  -4  10   69.29    6.60
   1   4  10   72.19    6.80
   1   4  10   69.69    6.40
   2  -4  10  147.89   12.30
  -2   4  10  155.18   11.90
  -2   4  10  140.09   12.90
  -2  -4  10  162.38   12.70
  -2   4 -10  133.29   11.80
   2   4  10  172.18   12.70
   2   4  10  142.69   13.10
  -3   4  10   51.19    4.70
   3  -4  10   42.50    5.00
  -3   4 -10   51.19    4.60
   3   4  10   55.79    5.50
   3   4  10   48.40    5.40
   4  -4  10  411.46   32.80
   4   4  10  452.45   33.40
   4   4  10  431.56   33.40
   5   4  10   52.99    5.80
   5   4  10   50.39    5.80
   6  -4  10  755.42   56.09
   6   4  10  797.22   56.99
   6   4  10  685.03   56.29
   0   5  10    0.80    1.30
   0  -5  10    0.70    1.20
   0   5  10    1.10    1.10
   1  -5  10    0.90    1.30
  -1   5  10    1.30    1.50
  -1   5  10   -0.40    0.90
   1   5  10    0.60    1.30
   1   5  10   -0.30    1.00
  -1  -5  10    0.40    1.30
  -2   5  10  830.02   61.29
   2  -5  10  849.32   61.79
  -2   5  10  790.22   62.49
   2   5  10  894.71   62.09
  -2  -5  10  835.92   62.19
  -2   5 -10  779.52   61.29
   2   5  10  817.92   62.29
  -3   5  10   48.00    4.50
   3  -5  10   49.60    5.10
   3   5  10   49.20    5.50
   3   5  10   49.20    5.40
   4  -5  10  445.06   33.30
   4   5  10  406.36   33.70
   4   5  10  455.35   33.90
   5  -5  10   36.80    4.40
   5   5  10   31.90    4.60
   6   5 -10   22.60    4.40
   6  -5  10   19.70    3.30
   6   5  10   21.10    4.10
   0   6  10  934.61   73.09
   0   6  10  929.91   72.69
   0  -6  10 1060.49   72.89
  -1   6  10   75.29    6.40
  -1   6  10   57.99    7.00
   1  -6  10   71.89    6.80
  -1  -6  10   77.29    7.30
   1   6  10   75.69    6.90
   2  -6  10  185.68   15.10
  -2   6  10  172.98   15.80
  -2   6  10  207.58   14.70
   2   6  10  175.98   15.50
  -3   6  10   26.40    4.70
  -3   6  10   21.90    2.80
   3  -6  10   27.40    3.90
   3   6  10   23.70    4.00
   3   6  10   24.70    4.00
   4  -6  10  129.09   10.80
   4   6  10  115.49   11.30
   4   6  10  139.59   11.60
   5  -6  10   31.30    4.20
   5   6 -10   28.60    5.00
   5   6  10   28.80    4.70
   5   6  10   38.00    6.10
   6  -6  10  375.26   28.30
   6   6 -10  353.46   29.60
   6   6  10  382.76   29.30
   6   6  10  345.17   29.00
   0   7  10   -1.30    1.00
   0   7  10    0.10    1.80
   0  -7  10    1.40    1.60
  -1   7  10    9.00    2.50
   1  -7  10    7.40    2.20
  -1   7  10    6.50    1.70
   1   7  10    9.30    2.30
   1   7  10    9.50    2.30
  -2   7  10  574.04   46.30
   2  -7  10  603.94   45.60
  -2   7  10  623.74   44.90
   2   7  10  657.53   45.90
   2   7  10  531.75   46.00
  -2   7 -10  570.94   44.90
  -2   7 -10  655.53   45.20
  -3   7  10   42.50    6.10
   3   7 -10   42.50    5.20
   3  -7  10   42.20    4.70
   3   7  10   38.00    5.00
   3   7  10   41.60    5.10
   4  -7  10  190.98   14.70
   4   7 -10  190.68   16.70
   4   7  10  155.18   15.40
   4   7  10  175.28   17.50
   5  -7  10    8.30    2.40
   5   7 -10    5.70    2.60
   5   7  10    6.90    2.80
   5   7  10    9.80    2.70
   0   8  10  728.73   51.29
   0   8  10  615.34   51.99
   0  -8  10  700.93   51.79
   0   8 -10  683.33   51.49
   1   8 -10   67.09    6.30
  -1   8  10   56.49    6.70
  -1   8  10   65.09    5.80
   1  -8  10   54.19    6.20
   1   8  10   65.59    6.20
   1   8  10   47.50    6.50
  -1   8 -10   64.89    5.90
   2  -8  10   77.29    7.40
  -2   8  10   67.79    7.90
   2   8 -10   76.99    7.60
  -2   8  10   86.69    6.60
  -2   8 -10   76.59    6.70
   2   8  10   84.59    7.60
   2   8  10   62.89    7.50
   3   8 -10    3.30    2.10
   3  -8  10    0.40    1.60
  -3   8  10    1.30    2.10
   3   8  10    0.80    1.40
   3   8  10    3.20    1.80
   4   8 -10  105.09   10.10
   4  -8  10  104.69    9.30
   4   8  10   95.69    9.80
   4   8  10  109.19   10.00
   5   8 -10   13.20    3.70
   5   8 -10   14.10    8.20
  -5  -8 -10    9.30   10.60
   5  -8  10   17.00    3.10
   5   8  10   13.10    3.40
   5   8  10   17.90    3.90
   0   9  10    0.00    2.00
   0   9  10    1.50    1.40
   0   9 -10    2.50    1.80
  -1   9  10    5.40    2.60
   1   9 -10    3.60    1.80
   1  -9  10    5.10    2.40
   1   9  10    0.60    1.90
  -1   9 -10    7.10    2.00
   1   9  10    4.50    2.00
   2  -9  10  264.47   21.60
  -2  -9 -10  307.17   34.30
  -2   9  10  239.98   22.20
   2   9 -10  265.37   22.00
  -2   9  10  292.87   20.70
   2  -9 -10  302.37   31.60
   2   9  10  234.78   22.00
   2   9  10  297.77   21.90
   3   9 -10   34.30    7.90
  -3   9  10   31.10    5.30
   3  -9  10   32.20    4.40
  -3  -9 -10   25.70   11.20
   3   9  10   44.30    7.80
  -4  -9 -10  146.09   23.60
   4  -9  10  152.78   12.30
   4   9 -10  149.19   13.40
   4   9  10  126.99   12.90
   0 -10 -10  173.58   29.20
   0  10 -10  191.98   15.60
   0  10  10  204.28   15.40
   0  10  10  167.18   16.20
   1  10 -10   19.40    3.60
  -1 -10 -10   11.00   10.20
  -1  10  10   11.70    3.40
  -1  10  10   15.70    2.70
  -1  10 -10   19.20    3.60
   1  10  10    9.80    3.20
   1 -10 -10   20.30   11.20
   1  10  10   15.70    3.00
   2  10 -10   22.10   10.90
  -2  10  10   24.10    4.60
   2  10 -10   31.70    4.70
  -2 -10 -10   46.00   14.20
   2  10  10   20.40    4.20
   0   0  11    1.60    1.10
   1   0  11   -0.90    1.20
   1   0  11    0.20    1.00
  -1   0  11   -0.70    1.20
   2   0  11 1479.45  101.69
   2   0  11 1263.27  102.39
  -2   0  11 1372.86  101.49
   3   0  11  109.89    9.10
  -3   0  11   95.59    8.80
   4   0  11  254.27   21.80
   4   0  11  308.47   22.30
   5   0  11   13.50    2.60
   6   0  11   20.50    3.20
   7   0  11   77.79    7.30
   7   0  11   76.99    8.00
   0  -1  11 1678.93  118.19
   0   1  11 1481.25  118.59
   0   1  11 1639.04  117.99
   1  -1  11  218.68   16.40
  -1   1  11  205.28   16.20
  -1  -1  11  204.48   16.30
   1   1  11  214.68   16.40
   1   1  11  184.78   16.60
   2  -1  11  308.97   22.10
  -2   1  11  293.27   21.90
  -2  -1  11  272.37   21.90
   2   1  11  303.47   22.20
   2   1  11  233.18   21.90
   3  -1  11    9.00    2.10
  -3   1  11    8.50    2.00
   3  -1  11   12.30    2.40
   3   1  11   11.70    2.30
  -3  -1  11   14.50    2.60
   3   1  11   10.80    2.30
   4  -1  11  354.36   26.80
   4  -1  11  345.47   26.60
   4   1  11  334.17   26.80
   4   1  11  341.57   26.70
   5  -1  11   40.30    4.60
   5  -1  11   34.00    4.00
   5   1  11   37.40    4.30
   6  -1  11  449.06   38.00
   6   1  11  501.75   36.70
   7  -1  11    0.70    1.60
   7   1  11   -1.10    1.20
   0   2  11    1.40    1.10
   0   2  11    0.80    1.40
   0  -2  11    0.60    1.00
   1  -2  11   18.90    2.80
  -1   2  11   11.60    2.70
  -1   2  11   17.00    3.40
   1   2  11   15.70    3.10
  -1  -2  11   20.10    3.00
   1   2  11   18.60    2.90
  -2   2  11  518.35   41.40
   2  -2  11  536.35   40.10
  -2  -2  11  521.65   40.10
   2   2  11  521.25   40.40
   2   2  11  547.75   40.20
   3  -2  11   84.59    7.60
  -3   2  11   78.09    7.60
   3  -2  11   81.09    7.90
  -3  -2  11   88.09    7.90
   3   2  11   75.09    7.60
   3   2  11   93.39    7.90
  -4   2  11  913.41   69.49
   4  -2  11  952.10   68.79
   4   2  11  831.92   68.79
   4   2  11  983.80   69.09
   5  -2  11   10.80    2.40
   5  -2  11    6.60    1.90
   5   2  11    9.20    2.10
   5   2  11   12.50    2.70
   6  -2  11   18.20    3.40
   6   2  11   20.30    3.70
   0   3  11  998.20   72.29
   0  -3  11  993.10   72.59
   0   3  11  929.81   72.99
  -1   3  11   57.29    6.60
   1  -3  11   63.39    6.20
   1   3  11   68.59    6.20
  -1  -3  11   69.39    6.40
  -2   3  11  154.68   12.40
  -2  -3  11  159.28   13.00
   2   3  11  171.18   13.10
   2   3  11  137.49   13.00
  -3   3  11   83.29    7.60
   3  -3  11   99.99    8.20
   3   3  11   88.99    8.30
   3   3  11   88.29    8.20
  -3  -3  11   87.29    8.40
  -4   3  11  490.25   37.30
   4  -3  11  480.65   37.60
   4   3  11  513.25   38.10
   4   3  11  493.35   37.90
   5  -3  11   67.39    6.90
  -5   3 -11   70.69    6.60
   5   3  11   76.19    7.20
   5   3  11   71.59    7.60
   6  -3  11  515.65   39.10
   6   3  11  476.95   39.20
   6   3  11  538.45   39.70
   0   4  11   -0.90    0.80
   0  -4  11    1.00    1.20
   0   4  11    1.30    1.30
   1  -4  11   29.20    3.90
  -1   4  11   28.70    4.50
  -1  -4  11   40.30    4.20
   1   4  11   27.50    3.70
   1   4  11   28.00    4.40
  -2   4  11  565.84   43.20
   2  -4  11  604.64   43.70
  -2   4  11  505.25   44.30
   2   4  11  565.34   44.10
  -2  -4  11  594.04   44.00
   2   4  11  630.34   43.90
  -3   4  11   64.49    5.90
   3  -4  11   65.59    6.40
   3   4  11   80.29    7.00
   3   4  11   60.69    6.60
  -3   4 -11   62.59    5.80
   4  -4  11  566.24   40.70
  -4   4  11  547.65   40.20
   4   4  11  602.24   41.30
   4   4  11  494.95   40.90
  -4   4 -11  474.35   39.90
   5  -4  11   26.20    4.00
   5   4  11   18.20    3.80
   5   4  11   23.10    4.20
   6  -4  11   19.30    3.70
   6   4  11   15.10    3.60
   6   4  11   23.50    4.50
   0   5  11  816.62   61.39
   0   5  11  816.42   60.59
   0  -5  11  803.42   60.89
   1  -5  11   74.69    7.40
  -1   5  11   67.99    7.80
   1   5  11   72.59    7.60
  -1  -5  11   81.99    7.60
   1   5  11   93.09    7.40
  -2   5  11  176.88   14.20
  -2   5  11  153.88   15.30
   2  -5  11  192.78   14.90
  -2  -5  11  194.78   15.20
   2   5  11  169.68   15.20
   2   5  11  197.58   15.00
  -3   5  11   54.89    5.00
   3  -5  11   56.79    5.60
  -3   5 -11   46.40    4.90
   3   5  11   59.29    6.00
   3   5  11   49.20    5.70
  -4   5  11  193.68   15.70
   4  -5  11  207.08   16.30
   4   5  11  202.68   16.80
   4   5  11  201.08   16.80
   5  -5  11   39.90    4.90
   5   5  11   43.10    5.80
   5   5  11   46.00    5.50
   6  -5  11  422.06   35.60
   6   5  11  419.26   34.90
   6   5  11  502.75   35.50
   0  -6  11    3.10    1.60
   0   6  11    0.80    1.40
   0   6  11   -0.50    0.90
  -1   6  11   32.10    4.90
  -1   6  11   20.00    3.50
   1  -6  11   33.20    4.50
   1   6  11   22.60    4.00
  -1  -6  11   32.40    4.50
   1   6  11   26.70    3.90
  -2   6  11  468.35   39.70
   2  -6  11  534.35   39.10
  -2   6  11  542.55   38.40
   2   6  11  552.84   39.30
   2   6  11  454.95   39.40
   3  -6  11   45.20    5.00
  -3   6  11   43.50    4.20
  -3   6  11   34.20    6.00
   3   6  11   49.50    5.30
   3   6  11   36.40    5.10
   4  -6  11  251.07   19.10
   4   6  11  221.88   20.50
   5  -6  11   10.40    2.50
   5   6 -11    8.90    2.90
   5   6  11   13.40    3.30
   5   6  11    5.60    2.60
   0   7  11  701.43   57.39
   0   7  11  816.22   56.69
   0  -7  11  745.93   57.09
  -1   7  11   96.79    8.20
   1  -7  11   99.39    8.80
  -1   7  11   82.59    9.30
   1   7  11   90.89    9.00
   1   7  11  104.69    8.70
   2  -7  11   88.89    8.20
  -2   7  11   71.29    8.60
  -2   7  11   97.99    7.60
   2   7  11   78.69    8.50
   2   7  11   97.79    8.40
   3  -7  11   -1.10    1.40
  -3   7  11   -0.70    1.80
  -3   7  11    1.80    1.40
   3   7  11   -0.70    1.80
   3   7  11    0.70    1.30
   4   7 -11  118.89   11.00
   4  -7  11  119.19   10.00
   4   7  11  109.49   10.40
   4   7  11  101.39   10.60
   5  -7  11   16.80    3.10
   5   7 -11   18.60    4.00
   5   7  11   17.30    3.60
   5   7  11   19.40    3.80
   0   8  11    1.80    1.30
   0   8 -11    0.20    1.20
   0  -8  11    2.20    1.70
   0   8  11   -0.80    1.70
  -1   8  11    6.20    1.80
   1   8 -11    3.90    1.90
   1  -8  11    3.40    2.20
  -1   8  11    4.20    2.10
  -1   8 -11    6.40    2.00
   1   8  11    6.00    2.10
   1   8  11    6.20    3.80
   2   8 -11  336.37   26.40
  -2   8  11  334.37   25.00
   2  -8  11  324.57   25.90
   2   8  11  336.07   26.00
  -2   8 -11  317.37   25.10
   3   8 -11   47.50    8.50
   3  -8  11   46.40    5.10
   3   8  11   32.90    4.70
   4   8 -11  149.29   13.90
   4  -8  11  155.98   13.10
   4   8  11  125.59   16.10
   4   8  11  175.78   14.00
   0   9  11  339.17   23.50
   0   9 -11  297.57   23.70
   0   9  11  253.67   24.20
   1  -9  11   36.00    5.80
  -1   9  11   29.00    3.90
  -1   9  11   36.40    5.50
   1   9 -11   38.80    4.40
   1   9  11   23.80    4.90
   1   9  11   31.20    4.20
  -1   9 -11   31.10    4.40
   2   9 -11   36.70    4.90
  -2   9  11   26.50    4.90
  -2   9  11   36.60    3.90
   2  -9  11   26.70    4.40
  -2   9 -11   33.80    3.80
   2   9  11   38.30    4.90
   3  -9  11    1.00    2.10
  -3   9  11    1.60    2.20
   3   9 -11    1.70    1.90
  -3  -9 -11   -0.30    9.10
   3   9  11    0.80    1.60
   3   9  11    1.30    1.70
   0  10  11    3.20    2.50
   0  10 -11   -0.30    2.00
   0  10  11   -1.00    1.60
  -1 -10 -11   -9.30    9.60
  -1  10  11    3.60    1.80
   1  10 -11    2.20    2.20
  -1  10  11    6.00    2.90
   1  10  11    3.80    2.40
  -1  10 -11    5.70    2.30
   1 -10 -11   -7.90    9.00
   1  10  11    6.60    2.20
   0   0  12 1143.29   84.79
   1   0  12  101.49    8.40
   1   0  12   84.39    8.60
  -1   0  12   90.99    8.20
  -2   0  12  166.68   12.80
   2   0  12  164.78   12.90
   2   0  12  134.09   12.90
  -3   0  12   98.99    8.00
   3   0  12   73.69    7.70
   4   0  12  265.17   21.00
   4   0  12  264.57   21.20
   5   0  12   77.39    7.40
   5   0  12   79.99    8.00
   6   0  12  596.44   42.30
   6   0  12  503.55   41.50
   0   1  12    3.00    1.50
   0  -1  12    3.00    1.40
   0   1  12    2.60    1.90
   1  -1  12    3.50    1.40
  -1   1  12    2.40    1.50
  -1  -1  12    2.00    1.70
   1   1  12    2.00    1.30
   1   1  12    4.80    2.10
   2  -1  12  681.33   54.09
  -2   1  12  705.53   53.59
   2  -1  12  766.32   53.89
   2   1  12  675.73   54.09
  -2  -1  12  735.33   53.79
   2   1  12  733.73   53.89
   3  -1  12  110.69    9.60
   3  -1  12   90.29    9.30
  -3   1  12  110.89    9.40
  -3  -1  12  110.19    9.60
   3   1  12  119.39    9.80
   3   1  12  109.99    9.80
  -4   1  12  478.05   37.30
   4  -1  12  513.45   37.60
   4   1  12  443.86   37.40
   4   1  12  529.25   37.80
   5  -1  12    4.70    1.90
   5  -1  12    9.50    2.40
   5   1  12    2.80    1.80
   6  -1  12   10.40    2.70
   6   1  12    6.60    2.30
   0  -2  12 1253.87   92.19
   0   2  12 1231.68   91.99
   1  -2  12   83.89    8.20
  -1   2  12   99.49    9.20
  -1   2  12   88.79    8.00
  -1  -2  12   92.49    8.30
   1   2  12   92.89    8.80
   1   2  12   98.29    8.30
   2  -2  12  116.69   10.30
  -2   2  12  119.29   10.00
  -2  -2  12  121.39   10.40
   2   2  12  135.39   10.60
   2   2  12  107.49   10.40
  -3   2  12   30.90    3.60
  -3  -2  12   30.90    4.10
   3   2  12   27.20    3.80
   3   2  12   27.60    4.20
   4  -2  12  335.07   26.50
   4  -2  12  354.46   26.80
  -4   2  12  323.67   26.40
   4   2  12  348.07   27.00
   4   2  12  353.16   27.00
   5  -2  12   45.80    5.00
   5  -2  12   31.00    4.30
   5   2  12   42.70    5.10
   5   2  12   45.60    5.00
   6  -2  12  416.76   29.90
   6  -2  12  338.57   29.00
   6   2  12  390.66   30.30
   6   2  12  382.26   29.90
   0  -3  12    1.50    1.40
   0   3  12    0.40    1.10
   0   3  12    1.90    1.70
  -1   3  12   16.00    3.40
  -1   3  12   17.50    2.90
   1  -3  12   14.70    2.70
   1   3  12   17.20    3.40
   1   3  12   14.40    2.70
  -1  -3  12   17.80    3.10
   2  -3  12  426.46   32.30
  -2   3  12  399.26   31.80
   2   3  12  433.96   32.30
  -2  -3  12  418.36   32.40
   2   3  12  421.36   32.70
  -3   3  12   81.69    7.40
   3  -3  12   86.69    8.00
  -3  -3  12   94.39    8.30
   3   3  12   92.19    8.10
   3   3  12   69.99    7.90
   4  -3  12  714.43   50.59
  -4   3  12  629.74   49.99
   4   3  12  606.64   50.59
   4   3  12  724.13   50.89
   5  -3  12   25.10    3.90
   5   3  12   27.70    4.30
   6  -3  12   14.80    3.10
   6   3  12   13.80    3.10
   6   3  12   22.60    3.50
   0  -4  12  804.72   59.49
   0   4  12  767.92   60.09
   0   4  12  801.42   59.19
  -1   4  12   27.00    3.50
   1  -4  12   29.50    4.10
  -1   4  12   28.10    4.60
   1   4  12   34.00    4.00
  -1  -4  12   31.30    4.00
   1   4  12   34.50    4.60
  -2   4  12  203.58   16.00
  -2   4  12  179.68   17.20
   2  -4  12  216.88   16.60
   2   4  12  229.98   16.80
  -2  -4  12  211.98   16.80
   2   4  12  174.58   16.70
   3  -4  12   32.60    4.30
   3   4  12   34.90    4.50
   3   4  12   33.70    4.40
   4  -4  12  214.08   17.50
   4   4  12  227.58   18.10
   4   4  12  207.28   18.30
   5  -4  12   72.49    7.70
   5   4  12   63.49    7.10
   5   4  12   73.69    7.40
   6  -4  12  411.86   33.00
   6   4  12  442.26   33.80
   0   5  12    0.80    1.80
   0  -5  12    1.60    1.70
   0   5  12    1.10    1.20
  -1   5  12   26.70    3.50
   1  -5  12   31.10    4.30
  -1   5  12   25.40    4.40
   1   5  12   28.00    3.70
   1   5  12   25.30    4.30
  -1  -5  12   33.70    4.70
  -2   5  12  474.65   38.00
   2  -5  12  517.95   38.70
   2   5  12  493.75   39.80
  -2  -5  12  518.65   39.00
   2   5  12  526.65   38.80
  -3   5  12   60.89    5.70
   3  -5  12   65.59    6.40
   3   5  12   66.59    6.50
   3   5  12   51.39    6.60
  -4   5  12  296.37   23.90
   4  -5  12  321.77   24.60
   4   5  12  358.46   25.40
   4   5  12  279.17   24.80
   5   5  12    4.80    2.00
   5   5  12    6.90    2.60
   0   6  12  741.23   50.09
   0   6  12  581.84   50.59
   1  -6  12   77.19    7.50
  -1   6  12   74.39    6.80
  -1   6  12   65.79    7.70
   1   6  12   83.99    7.30
   1   6  12   71.09    7.60
  -1  -6  12   70.49    7.50
  -2   6  12  110.29    9.50
   2  -6  12  118.99   10.10
   2   6  12  126.69   10.20
   2   6  12   92.89   10.20
  -3   6  12    1.60    1.30
   3  -6  12   -1.90    1.50
   3   6  12   -0.70    1.30
   4  -6  12  132.09   11.50
   4   6  12  127.09   11.90
   4   6  12  134.49   11.90
   5  -6  12   32.10    4.50
   5   6  12   31.50    4.80
   5   6  12   22.30    4.20
   0  -7  12    3.10    1.70
   0   7  12    3.00    1.60
   0   7  12   -0.30    1.70
   1  -7  12    0.80    1.70
  -1   7  12    3.80    2.40
  -1   7  12   -0.20    1.30
   1   7  12    2.90    1.90
  -1  -7  12    1.70    2.40
  -2   7  12  366.06   28.40
   2  -7  12  363.36   28.30
   2   7  12  312.97   28.60
   2   7  12  402.86   28.50
   3  -7  12   53.99    5.90
  -3   7  12   47.00    6.60
   3   7  12   58.69    6.70
   4   7 -12  171.18   14.20
   4   7  12  136.99   13.40
   0   8 -12  366.36   27.40
   0   8  12  294.27   27.70
   0  -8  12  337.77   27.60
   0   8  12  383.96   27.00
  -1   8  12   33.90    5.90
   1   8 -12   38.40    5.00
  -1   8  12   43.60    4.50
   1   8  12   45.90    5.10
  -1   8 -12   37.40    4.60
  -2   8  12   32.80    6.00
   2   8 -12   46.80    5.60
   2   8  12   40.60    5.60
   2   8  12   56.69    5.50
  -2   8 -12   45.20    4.80
  -3   8  12    0.00    2.50
   3  -8  12    8.10    2.60
   3   8 -12    4.70    2.20
   3   8  12    5.50    2.20
   3   8  12    5.80    2.40
   0   9  12    1.80    1.70
   0   9  12   -0.50    1.70
   0   9 -12    1.50    1.60
  -1   9  12    2.10    1.60
  -1   9  12   -2.70    2.00
   1   9 -12    2.00    2.10
   1  -9  12    1.30    2.00
  -1   9 -12    3.20    1.90
   1   9  12    1.40    2.10
   1   9  12    2.00    1.90
   2   9 -12  116.39   12.70
   2  -9  12  115.99    9.90
  -2   9  12  101.19   10.60
   2   9  12   87.89    9.80
   0   0  13    4.40    1.80
   1   0  13   36.60    5.20
  -1   0  13   49.20    5.00
   1   0  13   46.10    4.90
   2   0  13  625.04   44.20
  -2   0  13  585.14   43.90
   2   0  13  531.45   44.30
   3   0  13   76.69    7.40
  -3   0  13   75.39    7.10
   3   0  13   73.79    7.30
  -4   0  13  517.65   38.80
   4   0  13  554.44   39.10
   4   0  13  448.76   38.60
   5   0  13    0.50    1.60
   5   0  13    3.00    1.80
   6   0  13   10.70    2.70
   0  -1  13  928.11   67.29
   0   1  13  938.61   67.19
   0   1  13  829.32   67.99
   1  -1  13   87.99    8.00
  -1   1  13   78.49    7.70
  -1  -1  13   91.19    8.00
   1   1  13   84.29    8.40
   1   1  13   88.39    8.00
  -2   1  13   99.49    9.30
   2  -1  13  113.59    9.70
  -2  -1  13  118.99    9.70
   2   1  13   96.89    9.90
   2   1  13  114.79    9.70
   3  -1  13    2.20    1.60
   3  -1  13    1.20    1.70
  -3   1  13    2.30    1.50
  -3  -1  13    3.90    1.70
   3   1  13    5.30    1.70
   3   1  13    4.00    2.00
  -4   1  13  306.77   23.30
   4  -1  13  304.87   23.30
   4   1  13  311.97   23.50
   4   1  13  245.28   24.00
   5  -1  13   84.89    8.20
   5  -1  13   79.09    7.80
   5   1  13   76.29    8.10
   5   1  13   91.79    8.20
   6  -1  13  435.26   34.30
   6   1  13  444.06   34.50
   0   2  13   -0.20    1.60
   0  -2  13    2.40    1.60
   0   2  13   -0.30    1.40
   1  -2  13   13.50    2.80
  -1   2  13    9.50    2.10
   1   2  13   13.60    3.10
   1   2  13    8.20    2.30
  -1  -2  13   15.60    3.00
  -2   2  13  657.93   51.39
   2  -2  13  709.13   51.79
  -2  -2  13  701.53   51.79
   2   2  13  731.83   51.89
   2   2  13  627.64   52.09
  -3   2  13   73.09    7.10
   3  -2  13   77.99    7.70
  -3  -2  13   79.09    7.60
   3   2  13   79.59    7.50
   3   2  13   75.39    7.80
  -4   2  13  369.26   29.00
   4  -2  13  429.26   29.70
   4   2  13  333.97   29.30
   5  -2  13   15.30    3.10
   5  -2  13   20.90    3.70
   5   2  13   19.00    3.60
   0  -3  13 1052.69   78.39
   0   3  13 1049.89   78.19
   1  -3  13   91.89    8.00
  -1   3  13   80.89    8.60
  -1   3  13   81.29    7.50
  -1  -3  13   85.79    7.90
   1   3  13   74.89    8.30
   1   3  13   81.69    7.70
  -2   3  13  157.18   12.90
   2  -3  13  156.48   13.30
   2   3  13  172.98   13.50
   2   3  13  138.59   13.50
  -2  -3  13  163.28   13.50
   3  -3  13   99.29    8.50
  -3   3  13   80.99    7.70
   3   3  13   91.89    8.40
   3   3  13   83.29    8.40
  -3  -3  13   81.79    8.40
   4  -3  13  190.88   16.40
  -4   3  13  182.98   15.20
   4   3  13  190.98   16.00
   4   3  13  186.48   15.80
   5  -3  13   44.90    5.40
   5   3  13   42.70    5.40
   5   3  13   45.10    5.50
   0   4  13    0.30    1.20
   0   4  13    4.40    2.00
   0  -4  13    0.70    1.50
   1  -4  13   49.70    5.60
  -1   4  13   48.00    4.90
  -1   4  13   38.50    5.60
   1   4  13   52.99    5.20
   1   4  13   47.90    7.90
  -1  -4  13   45.70    5.30
  -2   4  13  451.45   34.70
   2  -4  13  499.55   35.30
  -2  -4  13  440.26   35.40
   2   4  13  486.15   35.30
   2   4  13  409.76   35.50
  -3   4  13   63.59    6.20
   3  -4  13   68.59    6.80
   3   4  13   71.39    6.80
   3   4  13   54.39    6.70
  -4   4  13  329.37   25.40
   4   4  13  287.17   26.10
   4   4  13  371.06   26.40
   5  -4  13    4.60    2.30
   5   4  13    5.80    2.50
   0  -5  13  862.71   65.89
   0   5  13  891.61   65.49
  -1   5  13   72.69    7.30
   1  -5  13   61.09    8.40
  -1   5  13   65.59    6.20
  -1  -5  13   61.99    6.80
   1   5  13   63.79    7.20
  -2   5  13   85.69    7.70
   2  -5  13   88.29    8.40
  -2   5  13   75.29    9.10
  -2  -5  13   97.19    8.80
   2   5  13   77.39    8.60
   2   5  13   98.09    8.40
  -3   5  13    0.90    1.60
   3  -5  13    3.50    1.90
   4  -5  13  145.29   12.10
   4   5  13  123.59   12.30
   4   5  13  143.79   12.40
   5  -5  13   40.10    5.10
   5   5  13   38.30    5.20
   0  -6  13    2.10    2.00
   0   6  13    2.80    1.40
   1  -6  13   10.80    2.70
  -1   6  13   10.80    2.30
  -1   6  13    7.90    4.40
   1   6  13   13.20    2.60
   1   6  13    5.70    2.90
   2  -6  13  480.25   36.00
  -2   6  13  425.66   33.70
  -2  -6  13  418.76   34.60
   2   6  13  466.25   34.50
   3  -6  13   66.19    7.40
  -3   6  13   67.09    6.10
   3   6  13   58.19    7.00
   3   6  13   65.59    6.90
   4  -6  13  189.38   15.90
   4   6  13  192.08   16.30
   0  -7  13  407.46   32.40
   0   7  13  419.96   31.80
  -1   7  13   64.99    5.70
   1  -7  13   51.69    6.00
  -1   7  13   45.60    6.30
  -1  -7  13   43.90    6.20
   1   7  13   65.89    6.00
   1   7  13   43.90    6.20
  -2   7  13   43.90    4.20
  -2   7  13   26.60    5.30
   2  -7  13   33.10    4.60
   2   7  13   38.90    6.00
   2   7  13   31.00    5.10
   3  -7  13    5.40    2.30
   3   7  13    6.10    2.40
   3   7  13    8.40    2.50
   0   8  13    0.50    1.50
   0  -8  13    0.00    1.80
   0   8  13    3.10    2.20
  -1   8  13    1.40    1.80
   1  -8  13   -0.20    1.90
  -1   8  13    1.00    1.80
   1   8  13    3.30    2.10
   1   8  13    0.40    1.60
  -1   8 -13    4.40    2.20
  -2   8  13  151.28   12.40
   2  -8  13  155.88   13.30
   2   8 -13  152.38   13.90
  -2   8 -13  148.19   12.60
   2   8  13  154.38   13.10
   0   0  14  723.13   54.49
   1   0  14   93.19    8.70
  -1   0  14   95.09    8.60
   2   0  14   59.39    7.00
  -2   0  14   67.99    6.60
   2   0  14   74.29    6.90
   3   0  14   -2.50    1.50
  -3   0  14    0.10    1.40
   3   0  14   -0.70    1.60
   4   0  14  368.36   28.50
  -4   0  14  359.36   28.30
   4   0  14  356.06   28.50
   5   0  14   78.59    7.90
   5   0  14   75.39    7.70
   0  -1  14    0.60    1.50
   0   1  14    0.40    1.50
   1  -1  14   16.50    3.00
  -1   1  14   20.40    3.40
   1   1  14   18.00    3.30
   1   1  14   17.10    3.50
  -1  -1  14   18.00    3.30
  -2   1  14  349.17   26.30
   2  -1  14  350.16   26.50
  -2  -1  14  316.47   26.30
   2   1  14  303.07   26.70
   2   1  14  367.96   26.60
  -3   1  14   89.69    8.00
   3  -1  14   79.69    8.30
   3  -1  14   85.89   10.00
   3   1  14   74.19    9.50
  -3  -1  14   87.99    8.20
   3   1  14   89.89    8.50
   4  -1  14  384.96   34.10
  -4   1  14  475.45   34.40
   4   1  14  509.05   34.80
   4   1  14  410.06   34.50
   5  -1  14   14.90    3.10
   5   1  14    9.90    2.90
   0  -2  14  642.14   46.60
   0   2  14  562.24   47.30
   0   2  14  628.14   46.40
   1  -2  14   93.09    8.50
  -1   2  14   92.39    8.40
  -1  -2  14   90.99    8.50
   1   2  14   82.79    8.90
   1   2  14   93.59    8.40
   2  -2  14  180.08   15.00
  -2   2  14  180.28   14.70
   2   2  14  179.68   14.90
  -2  -2  14  177.48   15.00
  -3   2  14   17.00    3.00
  -3  -2  14   19.00    3.70
  -4   2  14  171.78   14.70
   4  -2  14  177.08   15.00
   4   2  14  172.98   15.20
   4   2  14  188.68   15.30
   5  -2  14   67.79    7.00
   5   2  14   64.19    7.00
   5   2  14   61.59    7.00
   0   3  14    1.10    1.60
   0  -3  14    1.90    1.40
  -1   3  14   28.50    4.20
  -1   3  14   31.60    5.60
   1  -3  14   34.60    4.40
   1   3  14   32.80    4.30
  -1  -3  14   33.70    4.90
   1   3  14   30.20    5.00
  -2   3  14  412.76   30.80
   2  -3  14  422.46   31.20
   2   3  14  347.57   31.40
  -2  -3  14  391.66   31.20
   2   3  14  423.06   31.20
  -3   3  14   59.89    6.10
   3  -3  14   71.69    7.40
   3   3  14   69.29    7.10
   3   3  14   60.69    6.90
   4  -3  14  280.17   21.80
  -4   3  14  263.87   21.40
   4   3  14  246.48   22.40
   4   3  14  290.67   22.20
   5  -3  14    8.30    2.50
   5   3  14    7.60    2.40
   0   4  14  931.61   68.29
   0  -4  14  893.91   68.59
   1  -4  14  105.59   10.10
  -1   4  14  112.29    9.60
  -1  -4  14  104.39   10.30
   1   4  14  117.89    9.90
  -2   4  14  114.49    9.40
   2   4  14   86.19   10.00
   2   4  14  124.29   10.10
  -2  -4  14  101.29   11.50
   3  -4  14   26.90    4.10
  -3   4  14   24.60    3.60
   3   4  14   20.10    4.50
  -3  -4  14   27.30    4.50
   3   4  14   27.20    4.20
   4  -4  14  112.69   10.60
  -4   4  14  115.49   10.20
   4   4  14  137.49   11.20
   4   4  14  108.09   11.00
   0   5  14   -0.40    1.70
   0  -5  14    2.60    1.40
   0   5  14   -0.90    1.30
   1  -5  14   29.60    5.90
  -1   5  14   15.40    3.90
  -1   5  14   30.10    3.80
   1   5  14   21.50    3.60
   1   5  14   19.30    4.20
  -1  -5  14   28.10    4.10
   2  -5  14  286.17   22.40
  -2   5  14  279.77   21.70
   2   5  14  237.98   22.60
  -2  -5  14  308.77   22.80
  -3   5  14   59.29    5.80
   3  -5  14   64.89    6.60
   3   5  14   63.49    6.50
   3   5  14   44.60    6.40
   4  -5  14  250.07   20.30
   4   5  14  246.78   20.50
   0  -6  14  445.96   35.10
   0   6  14  453.55   34.50
   1  -6  14   39.30    5.30
  -1   6  14   41.70    4.60
   1   6  14   47.00    5.10
   1   6  14   32.60    5.70
  -1  -6  14   38.30    5.20
  -2   6  14   48.40    5.10
   2  -6  14   45.90    5.60
  -2   6  14   37.50    6.60
  -2  -6  14   46.20    5.90
   2   6  14   39.10    6.30
   2   6  14   51.49    5.60
   3  -6  14   12.60    3.10
  -3   6  14   11.50    2.40
   3   6  14   11.80    3.10
   3   6  14    5.00    2.60
   0  -7  14    1.60    2.10
   0   7  14    2.10    1.60
   0   7  14    0.20    2.00
  -1   7  14    9.40    3.20
   1  -7  14   12.20    3.10
  -1   7  14   15.50    2.70
   1   7  14    7.50    2.80
   1   7  14    8.40    2.50
  -1  -7  14   13.60    3.40
   2  -7  14  158.38   13.40
  -2   7  14  144.59   12.50
   2   7  14  157.28   13.30
   0   0  15   -0.20    1.60
  -1   0  15    8.30    2.50
   1   0  15   11.00    2.40
   2   0  15  245.28   19.20
  -2   0  15  222.28   18.60
   2   0  15  223.28   19.40
   3   0  15   88.49    9.50
   3   0  15  103.29    9.40
  -3   0  15  105.69    9.30
  -4   0  15  438.26   35.40
   0  -1  15  707.03   53.59
   0   1  15  707.03   53.39
   1  -1  15   48.70    8.10
  -1   1  15   41.90    5.00
  -1  -1  15   41.70    5.00
   1   1  15   46.30    5.10
   1   1  15   29.30    5.40
  -2   1  15   66.29    6.50
   2  -1  15   62.49    6.70
  -2  -1  15   70.69    6.90
   2   1  15   57.59    7.00
   3  -1  15   -1.20    1.60
  -3   1  15    2.40    1.70
   3   1  15    2.80    1.70
   3   1  15    1.00    2.00
  -3  -1  15    2.70    3.10
   4  -1  15  217.68   19.40
   4  -1  15  238.98   19.50
  -4   1  15  239.38   19.10
   4   1  15  252.77   19.50
   4   1  15  225.18   19.50
   0  -2  15    0.70    2.80
   0   2  15   -3.90    1.80
   0   2  15   -0.70    1.30
  -1   2  15   46.70    5.50
   1  -2  15   47.50    8.10
   1   2  15   48.30    6.20
   1   2  15   49.70    5.60
  -1  -2  15   49.10    8.20
  -2   2  15  307.97   24.40
   2  -2  15  325.27   24.80
   2   2  15  338.57   24.90
   2   2  15  269.57   25.00
  -3   2  15   87.49    7.80
   3  -2  15   78.29    8.00
   3   2  15   83.59    8.20
   3   2  15   72.59    8.20
  -3  -2  15   78.19    8.00
  -4   2  15  301.87   25.30
   4  -2  15  334.07   25.80
   4   2  15  330.57   25.80
   0  -3  15  781.12   58.29
   0   3  15  759.42   57.89
  -1   3  15   71.49    6.70
   1  -3  15   66.29    7.00
   1   3  15   68.09    6.90
   1   3  15   56.89   10.00
  -1  -3  15   63.09    7.00
  -2   3  15  101.99    9.70
   2  -3  15  112.69   10.20
  -2  -3  15  113.79   10.30
   2   3  15  116.79   10.10
   3  -3  15    0.20    2.00
  -3   3  15   -1.10    1.50
  -3  -3  15    2.70    2.10
   3   3  15    2.80    1.90
   3   3  15   -2.60    1.70
   4  -3  15  133.39   10.90
  -4   3  15  112.39   10.20
   4   3  15  102.49   10.70
   4   3  15  112.59   10.80
   0   4  15    0.00    1.60
   0  -4  15    1.40    1.60
   0   4  15    3.20    2.30
  -1   4  15   15.80    3.90
  -1   4  15   17.40    3.30
   1  -4  15   20.50    3.70
  -1  -4  15   21.20    3.80
   1   4  15   17.20    4.10
   1   4  15   22.20    4.20
  -2   4  15  353.96   28.10
  -2  -4  15  339.07   28.70
   2   4  15  397.16   28.70
   3  -4  15   75.49    7.60
  -3   4  15   66.19    6.90
  -3  -4  15   83.79    8.00
   3   4  15   82.29    7.90
   3   4  15   56.19    7.50
   0  -5  15  558.24   44.20
   0   5  15  592.44   43.90
  -1   5  15   47.30    5.10
   1  -5  15   42.70    5.60
  -1   5  15   41.40    6.50
  -1  -5  15   49.80    5.90
   1   5  15   38.50    6.40
   2  -5  15   58.49    6.40
  -2   5  15   57.19    5.90
   2   5  15   59.49    6.40
  -2  -5  15   51.79    6.60
   2   5  15   44.50    6.50
  -3   5  15    3.60    2.00
   3  -5  15    6.70    2.40
   3   5  15    8.20    2.50
   0  -6  15    3.10    2.00
   0   6  15    1.70    2.10
   0   6  15   -1.50    1.50
  -1   6  15   14.60    3.80
   1  -6  15   20.60    4.10
  -1   6  15   23.50    3.40
   1   6  15   20.60    4.40
  -1  -6  15   21.10    4.10
   1   6  15   25.40    3.80
  -2   6  15  138.89   11.30
   2  -6  15  129.09   11.80
  -2  -6  15  121.89   11.90
   2   6  15  134.79   11.80
   0   0  16  450.75   34.90
   1   0  16   36.40    4.90
  -1   0  16   38.20    4.80
  -2   0  16   72.49    7.80
   2   0  16   82.99    8.00
   3   0  16    4.70    2.10
   3   0  16    1.90    2.60
  -3   0  16    2.00    1.80
   0   1  16    1.80    1.90
   0  -1  16    1.10    1.70
  -1   1  16   65.09    9.00
   1  -1  16   65.99    7.20
   1   1  16   69.49    7.10
  -1  -1  16   63.29    6.90
   2  -1  16  274.37   21.80
  -2  -1  16  254.27   21.70
   2   1  16  280.07   21.90
   3  -1  16   84.39    8.70
  -3   1  16  105.59   10.40
  -3  -1  16   80.39    8.60
   3   1  16   94.29    8.90
   0   2  16  585.54   46.00
   0  -2  16  619.04   46.20
   1  -2  16   56.19    6.10
   1   2  16   48.50    6.00
  -1  -2  16   56.99    6.40
  -2   2  16   48.50    6.30
   2  -2  16   66.49    6.80
   2   2  16   53.99    6.90
   2   2  16   62.09    6.70
  -2  -2  16   64.39    6.60
  -3   2  16    2.70    2.10
   3  -2  16    2.60    2.20
   3   2  16    1.70    1.80
   3   2  16    3.10    2.40
   0   3  16    1.70    2.40
   0  -3  16    0.70    1.50
   0   3  16    1.40    1.50
  -1   3  16   57.39    7.70
   1  -3  16   70.69    7.20
   1   3  16   49.99    7.20
  -1  -3  16   77.39    7.50
   1   3  16   71.29    7.00
  -2   3  16  333.17   27.60
   2  -3  16  357.56   28.20
  -2  -3  16  355.46   28.30
   2   3  16  376.66   28.20
   3   3  16   90.59    9.00
   0  -4  16  418.76   32.80
   0   4  16  416.46   32.50
   1  -4  16   58.69    6.40
  -1   4  16   48.20    6.10
   1   4  16   50.39    6.00
  -1  -4  16   58.89    6.50
   1   4  16   44.70    7.00
   2  -4  16   86.99    9.10
  -2   4  16   70.59    6.70
   2   4  16   69.39    6.90
  -2  -4  16   57.29    7.10
   2   4  16   47.60    6.80
   0   5  16   -1.20    1.60
   0  -5  16    3.50    2.00
   1  -5  16   26.50    4.50
  -1   5  16   22.00    5.20
   1   5  16   26.50    4.10
  -1  -5  16   24.30    4.20
   0   0  17    2.30    2.20
   1   0  17   52.19    6.20
  -1   0  17   47.30    5.80
  -2   0  17  241.18   19.80
   0  -1  17  341.97   26.80
   0   1  17  327.77   26.60
  -1   1  17   40.70    5.30
   1  -1  17   47.10    5.70
   1   1  17   42.10    5.50
  -1  -1  17   38.30    5.20
   0  -2  17    0.30    1.80
   0   2  17   -0.40    1.80
  -1   2  17   29.90    4.50
   1  -2  17   30.10    4.70
   1   2  17   38.10    4.90
  -1  -2  17   26.80    4.70
   0   0   0    0.00    0.00

_computing_structure_solution     'SHELXT 2018/2 (Sheldrick, 2018)'
;
_shelx_hkl_checksum                94416
_olex2_submission_special_instructions  'No special instructions were received'
